@<TRIPOS>MOLECULE
TBT
  120   125     1     0     0
SMALL
bcc


@<TRIPOS>ATOM
      1 C1         30.0340   66.3310  109.5870 c3      126 TBT     -0.108100
      2 C2         30.0400   67.4710  110.6260 c3      126 TBT      0.156800
      3 C3         31.3290   68.3040  110.5500 c3      126 TBT     -0.108100
      4 C4         29.8550   66.8960  112.0400 c3      126 TBT     -0.108100
      5 O5         28.8950   68.4050  110.4310 os      126 TBT     -0.398600
      6 H6         29.0990   65.7270  109.6420 hc      126 TBT      0.044256
      7 H7         30.9400   65.6880  109.6840 hc      126 TBT      0.044256
      8 H8         30.2060   66.7200  108.5560 hc      126 TBT      0.044256
      9 H9         31.3330   69.1280  111.3010 hc      126 TBT      0.044256
     10 H10        31.5010   68.6930  109.5190 hc      126 TBT      0.044256
     11 H11        32.2350   67.6610  110.6470 hc      126 TBT      0.044256
     12 H12        29.8590   67.7200  112.7910 hc      126 TBT      0.044256
     13 H13        30.6130   66.1130  112.2750 hc      126 TBT      0.044256
     14 H14        28.9390   66.2650  112.1180 hc      126 TBT      0.044256
     15 C15        28.3420   68.6790  109.0880 c3      127 4GB      0.336900
     16 O16        29.3570   69.2630  108.1910 os      127 4GB     -0.434600
     17 C17        28.9080   69.5570  106.8160 c3      127 4GB      0.093100
     18 C18        30.1210   70.0260  106.0050 c3      127 4GB      0.142400
     19 O19        31.0960   68.9750  105.9770 oh      127 4GB     -0.608800
     20 C20        27.7860   70.6020  106.9240 c3      127 4GB      0.085100
     21 C21        26.6480   70.1290  107.8470 c3      127 4GB      0.105100
     22 O22        25.7450   71.2320  108.0450 oh      127 4GB     -0.615800
     23 C23        27.1840   69.6840  109.2210 c3      127 4GB      0.128100
     24 O24        26.1160   69.0400  109.9370 oh      127 4GB     -0.612800
     25 O25        27.2420   70.8540  105.5750 os      127 4GB     -0.418600
     26 H26        27.9590   67.7300  108.6450 h2      127 4GB      0.058700
     27 H27        28.4990   68.6270  106.3580 h1      127 4GB      0.062700
     28 H28        30.5410   70.9860  106.3860 h1      127 4GB      0.048200
     29 H29        29.8410   70.3730  104.9830 h1      127 4GB      0.048200
     30 H30        31.8480   69.2660  105.4740 ho      127 4GB      0.430000
     31 H31        28.2110   71.5510  107.3280 h1      127 4GB      0.079700
     32 H32        26.1040   69.2830  107.3660 h1      127 4GB      0.061700
     33 H33        25.4140   71.5060  107.1980 ho      127 4GB      0.446000
     34 H34        27.5300   70.5770  109.7920 h1      127 4GB      0.071700
     35 H35        25.4010   69.6600  110.0190 ho      127 4GB      0.447000
     36 C36        27.4910   72.2140  105.0780 c3      128 6LB      0.347900
     37 O37        26.7200   73.1980  105.8610 os      128 6LB     -0.448600
     38 C38        26.8560   74.6090  105.4530 c3      128 6LB      0.127100
     39 C39        26.3890   74.7520  103.9840 c3      128 6LB      0.124100
     40 O40        24.9790   74.4570  103.9010 oh      128 6LB     -0.628800
     41 C41        27.1680   73.7650  103.0890 c3      128 6LB      0.106100
     42 O42        26.6680   73.8450  101.7420 oh      128 6LB     -0.612800
     43 C43        27.0870   72.3090  103.5950 c3      128 6LB      0.091100
     44 O44        28.0180   71.5120  102.8430 oh      128 6LB     -0.613800
     45 C45        26.1640   75.4740  106.5150 c3      128 6LB      0.143400
     46 O46        24.7470   75.0720  106.6400 os      128 6LB     -0.420600
     47 H47        28.5780   72.4430  105.1740 h2      128 6LB      0.046700
     48 H48        27.9430   74.8580  105.4800 h1      128 6LB      0.028700
     49 H49        26.5720   75.7950  103.6350 h1      128 6LB      0.066700
     50 H50        24.5000   75.0650  104.4520 ho      128 6LB      0.488000
     51 H51        28.2400   74.0720  103.0820 h1      128 6LB      0.072700
     52 H52        26.7180   74.7410  101.4310 ho      128 6LB      0.433000
     53 H53        26.0530   71.9160  103.4570 h1      128 6LB      0.090700
     54 H54        27.7690   71.5710  101.9280 ho      128 6LB      0.422000
     55 H55        26.2740   76.5640  106.3060 h1      128 6LB      0.046200
     56 H56        26.6970   75.4430  107.4940 h1      128 6LB      0.046200
     57 C57        23.8550   75.6590  107.5900 c3      129 0SA      0.216600
     58 C58        22.4540   75.0200  107.2610 c       129 0SA      0.938600
     59 O59        22.1220   74.0010  107.9100 o       129 0SA     -0.802800
     60 O60        21.7810   75.5340  106.3400 o       129 0SA     -0.802800
     61 C61        23.8600   77.2060  107.4210 c3      129 0SA     -0.117400
     62 C62        23.0490   77.8930  108.5260 c3      129 0SA      0.151100
     63 C63        23.5340   77.4460  109.9190 c3      129 0SA      0.049700
     64 C64        23.5090   75.9040  110.0270 c3      129 0SA      0.081100
     65 C65        24.0040   75.2890  111.3570 c3      129 0SA      0.106100
     66 C66        23.9850   73.7450  111.4460 c3      129 0SA      0.088100
     67 C67        24.2830   73.1960  112.8520 c3      129 0SA      0.134400
     68 O68        24.4560   71.7740  112.7730 oh      129 0SA     -0.622800
     69 O69        22.6640   73.2980  111.0920 oh      129 0SA     -0.628800
     70 O70        25.3600   75.7190  111.5780 oh      129 0SA     -0.619800
     71 O71        24.2760   75.3570  108.9350 os      129 0SA     -0.457600
     72 N72        22.6800   78.0420  110.9550 n       129 0SA     -0.525900
     73 C73        21.4310   77.6410  111.2520 c       129 0SA      0.742100
     74 O74        20.8330   76.7470  110.6500 o       129 0SA     -0.546000
     75 O75        23.2270   79.3130  108.3900 oh      129 0SA     -0.615800
     76 H76        23.5060   77.5070  106.4070 hc      129 0SA      0.064700
     77 H77        24.8990   77.6080  107.3670 hc      129 0SA      0.064700
     78 H78        21.9700   77.6400  108.4080 h1      129 0SA      0.079700
     79 H79        24.5810   77.8010  110.0670 h1      129 0SA      0.074700
     80 H80        22.4520   75.5790  109.8850 h1      129 0SA      0.127700
     81 H81        23.3730   75.6920  112.1830 h1      129 0SA      0.088700
     82 H82        24.7220   73.3250  110.7230 h1      129 0SA      0.071700
     83 H83        23.5050   73.4880  113.5950 h1      129 0SA      0.050700
     84 H84        25.1530   73.7030  113.3300 h1      129 0SA      0.050700
     85 H85        24.6400   71.4350  113.6410 ho      129 0SA      0.421000
     86 H86        22.6520   72.3500  111.1470 ho      129 0SA      0.465000
     87 H87        25.6640   75.3410  112.3950 ho      129 0SA      0.416000
     88 H88        23.0630   78.8210  111.4910 hn      129 0SA      0.333500
     89 H89        22.7240   79.7390  109.0750 ho      129 0SA      0.419000
     90 O90        20.7900   78.3600  112.3860 os        5 UNK     -0.418400
     91 C91        21.4000   79.3470  113.0810 cc        5 UNK      0.432600
     92 N92        21.9070   79.1260  114.3560 nc        5 UNK     -0.355000
     93 N93        22.4450   80.2190  114.7990 nd        5 UNK     -0.148800
     94 N94        22.3050   81.1580  113.8320 na        5 UNK      0.046400
     95 C95        21.6360   80.6490  112.7330 cd        5 UNK     -0.214600
     96 C96        22.8190   82.5060  114.0600 c3        5 UNK      0.167600
     97 C97        20.2590   84.8160  116.7350 ca        5 UNK     -0.119500
     98 C98        20.2560   83.4090  116.7760 ca        5 UNK     -0.130750
     99 C99        21.0850   82.6770  115.9050 ca        5 UNK     -0.109500
    100 C100       21.9260   83.3410  114.9840 ca        5 UNK     -0.108800
    101 C101       21.9280   84.7570  114.9560 ca        5 UNK     -0.109500
    102 C102       21.0970   85.4890  115.8260 ca        5 UNK     -0.130750
    103 C103       23.7060   84.4300  110.2510 ca        5 UNK     -0.119500
    104 C104       23.7410   83.0270  110.3670 ca        5 UNK     -0.130750
    105 C105       23.4600   82.4150  111.6030 ca        5 UNK     -0.109500
    106 C106       23.1420   83.1990  112.7350 ca        5 UNK     -0.108800
    107 C107       23.1060   84.6070  112.6090 ca        5 UNK     -0.109500
    108 C108       23.3880   85.2190  111.3720 ca        5 UNK     -0.130750
    109 H109       21.4150   81.2330  111.8530 h4        5 UNK      0.204000
    110 H110       23.7680   82.3870  114.5870 h1        5 UNK      0.097700
    111 H111       19.6210   85.3780  117.4020 ha        5 UNK      0.132000
    112 H112       19.6160   82.8910  117.4770 ha        5 UNK      0.135250
    113 H113       21.0790   81.5970  115.9490 ha        5 UNK      0.141000
    114 H114       22.5630   85.2950  114.2660 ha        5 UNK      0.141000
    115 H115       21.1010   86.5690  115.7940 ha        5 UNK      0.135250
    116 H116       23.9230   84.9000  109.3020 ha        5 UNK      0.132000
    117 H117       23.9820   82.4200  109.5060 ha        5 UNK      0.135250
    118 H118       23.4820   81.3370  111.6790 ha        5 UNK      0.141000
    119 H119       22.8630   85.2300  113.4580 ha        5 UNK      0.141000
    120 H120       23.3630   86.2960  111.2850 ha        5 UNK      0.135250
@<TRIPOS>BOND
     1    1    2 1   
     2    1    6 1   
     3    1    7 1   
     4    1    8 1   
     5    2    3 1   
     6    2    4 1   
     7    2    5 1   
     8    3    9 1   
     9    3   10 1   
    10    3   11 1   
    11    4   12 1   
    12    4   13 1   
    13    4   14 1   
    14    5   15 1   
    15   15   16 1   
    16   15   23 1   
    17   15   26 1   
    18   16   17 1   
    19   17   18 1   
    20   17   20 1   
    21   17   27 1   
    22   18   19 1   
    23   18   28 1   
    24   18   29 1   
    25   19   30 1   
    26   20   21 1   
    27   20   25 1   
    28   20   31 1   
    29   21   22 1   
    30   21   23 1   
    31   21   32 1   
    32   22   33 1   
    33   23   24 1   
    34   23   34 1   
    35   24   35 1   
    36   25   36 1   
    37   36   37 1   
    38   36   43 1   
    39   36   47 1   
    40   37   38 1   
    41   38   39 1   
    42   38   45 1   
    43   38   48 1   
    44   39   40 1   
    45   39   41 1   
    46   39   49 1   
    47   40   50 1   
    48   41   42 1   
    49   41   43 1   
    50   41   51 1   
    51   42   52 1   
    52   43   44 1   
    53   43   53 1   
    54   44   54 1   
    55   45   46 1   
    56   45   55 1   
    57   45   56 1   
    58   46   57 1   
    59   57   58 1   
    60   57   61 1   
    61   57   71 1   
    62   58   59 1   
    63   58   60 1   
    64   61   62 1   
    65   61   76 1   
    66   61   77 1   
    67   62   63 1   
    68   62   75 1   
    69   62   78 1   
    70   63   64 1   
    71   63   72 1   
    72   63   79 1   
    73   64   65 1   
    74   64   71 1   
    75   64   80 1   
    76   65   66 1   
    77   65   70 1   
    78   65   81 1   
    79   66   67 1   
    80   66   69 1   
    81   66   82 1   
    82   67   68 1   
    83   67   83 1   
    84   67   84 1   
    85   68   85 1   
    86   69   86 1   
    87   70   87 1   
    88   72   73 1   
    89   72   88 1   
    90   73   74 2   
    91   73   90 1   
    92   75   89 1   
    93   90   91 1   
    94   91   92 1   
    95   91   95 2   
    96   92   93 2   
    97   93   94 1   
    98   94   95 1   
    99   94   96 1   
   100   95  109 1   
   101   96  100 1   
   102   96  106 1   
   103   96  110 1   
   104   97   98 ar  
   105   97  102 ar  
   106   97  111 1   
   107   98   99 ar  
   108   98  112 1   
   109   99  100 ar  
   110   99  113 1   
   111  100  101 ar  
   112  101  102 ar  
   113  101  114 1   
   114  102  115 1   
   115  103  104 ar  
   116  103  108 ar  
   117  103  116 1   
   118  104  105 ar  
   119  104  117 1   
   120  105  106 ar  
   121  105  118 1   
   122  106  107 ar  
   123  107  108 ar  
   124  107  119 1   
   125  108  120 1   
@<TRIPOS>SUBSTRUCTURE
     1 TBT         1 TEMP              0 ****  ****    0 ROOT
