@<TRIPOS>MOLECULE
LIG
   30    31     1     0     0
SMALL
bcc


@<TRIPOS>ATOM
      1 C1          -9.2630     2.1950     0.0030 c3         1 LIG       0.152100
      2 N1          -7.8070     2.3160    -0.0670 n3         1 LIG      -0.827200
      3 C2          -7.1850     1.0190    -0.3620 c3         1 LIG       0.206100
      4 C3          -5.6960     1.1240    -0.6230 ca         1 LIG      -0.093300
      5 C4          -5.0090     2.3470    -0.6000 ca         1 LIG      -0.118500
      6 C5          -3.6370     2.3990    -0.8610 ca         1 LIG      -0.122000
      7 C6          -4.9830    -0.0440    -0.9100 ca         1 LIG      -0.118500
      8 C7          -3.6110    -0.0020    -1.1710 ca         1 LIG      -0.122000
      9 C8          -2.9000     1.2240    -1.1560 cp         1 LIG      -0.036000
     10 C9          -1.4090     1.2790    -1.4520 cp         1 LIG      -0.038000
     11 C10         -0.7270     2.5170    -1.5890 ca         1 LIG      -0.118500
     12 C11          0.6420     2.5590    -1.8670 ca         1 LIG      -0.131000
     13 C12          1.3670     1.3810    -2.0140 ca         1 LIG      -0.127000
     14 C13          0.7270     0.1530    -1.8840 ca         1 LIG      -0.131000
     15 C14         -0.6420     0.0930    -1.6070 ca         1 LIG      -0.118500
     16 H1          -9.7020     3.1860     0.2420 h1         1 LIG       0.030033
     17 H2          -9.5610     1.4710     0.7930 h1         1 LIG       0.030033
     18 H3          -9.6690     1.8670    -0.9790 h1         1 LIG       0.030033
     19 H4          -7.4610     2.6510     0.8630 hn         1 LIG       0.362800
     20 H5          -7.6500     0.5790    -1.2720 h1         1 LIG       0.037700
     21 H6          -7.3530     0.3240     0.4920 h1         1 LIG       0.037700
     22 H7          -5.5250     3.2720    -0.3840 ha         1 LIG       0.139500
     23 H8          -3.1760     3.3690    -0.8220 ha         1 LIG       0.135500
     24 H9          -5.4960    -0.9990    -0.9350 ha         1 LIG       0.139500
     25 H10         -3.1330    -0.9390    -1.3930 ha         1 LIG       0.135500
     26 H11         -1.2300     3.4630    -1.4960 ha         1 LIG       0.134500
     27 H12          1.1420     3.5140    -1.9700 ha         1 LIG       0.132000
     28 H13          2.4270     1.4200    -2.2290 ha         1 LIG       0.131000
     29 H14          1.2940    -0.7630    -1.9970 ha         1 LIG       0.132000
     30 H15         -1.0740    -0.8870    -1.5130 ha         1 LIG       0.134500
@<TRIPOS>BOND
     1     1     2 1   
     2     1    16 1   
     3     1    17 1   
     4     1    18 1   
     5     2     3 1   
     6     2    19 1   
     7     3     4 1   
     8     3    20 1   
     9     3    21 1   
    10     4     5 ar  
    11     4     7 ar  
    12     5     6 ar  
    13     5    22 1   
    14     6     9 ar  
    15     6    23 1   
    16     7     8 ar  
    17     7    24 1   
    18     8     9 ar  
    19     8    25 1   
    20     9    10 1   
    21    10    11 ar  
    22    10    15 ar  
    23    11    12 ar  
    24    11    26 1   
    25    12    13 ar  
    26    12    27 1   
    27    13    14 ar  
    28    13    28 1   
    29    14    15 ar  
    30    14    29 1   
    31    15    30 1   
@<TRIPOS>SUBSTRUCTURE
     1 LIG         1 TEMP              0 ****  ****    0 ROOT
