@<TRIPOS>MOLECULE
LIG
   24    25     1     0     0
SMALL
bcc


@<TRIPOS>ATOM
      1 Cl1         -7.8930    -1.0420     3.2270 cl         1 LIG      -0.071400
      2 C1          -6.2170    -1.0110     2.7100 ca         1 LIG      -0.013600
      3 C2          -5.5170     0.1990     2.6840 ca         1 LIG      -0.043000
      4 C3          -4.1720     0.2280     2.2700 ca         1 LIG      -0.200600
      5 C4          -3.4330     1.4220     2.2290 c          1 LIG       0.594900
      6 C5          -2.0920     1.3910     1.8080 cc         1 LIG      -0.283400
      7 C6          -1.2830     2.6700     1.7590 c3         1 LIG       0.190600
      8 O1           0.0360     2.4320     1.3110 os         1 LIG      -0.438600
      9 C7           0.7500     3.6470     1.2890 c3         1 LIG       0.119700
     10 C8          -1.5390     0.1500     1.4390 cd         1 LIG       0.112100
     11 O2          -2.2660    -0.9620     1.4880 os         1 LIG      -0.205200
     12 O3          -3.9470     2.4800     2.5570 o          1 LIG      -0.540100
     13 C9          -3.5360    -0.9730     1.8820 ca         1 LIG       0.142100
     14 C10         -4.2480    -2.1820     1.9120 ca         1 LIG      -0.006600
     15 Cl2         -3.4740    -3.6850     1.4330 cl         1 LIG      -0.051400
     16 C11         -5.5840    -2.1970     2.3250 ca         1 LIG      -0.075000
     17 H1          -6.0220     1.1090     2.9850 ha         1 LIG       0.179000
     18 H2          -1.2680     3.0930     2.7900 h1         1 LIG       0.052700
     19 H3          -1.8040     3.3670     1.0630 h1         1 LIG       0.052700
     20 H4           1.7790     3.4400     0.9320 h1         1 LIG       0.036700
     21 H5           0.8400     4.0830     2.3090 h1         1 LIG       0.036700
     22 H6           0.2970     4.3700     0.5740 h1         1 LIG       0.036700
     23 H7          -0.5120     0.0800     1.1080 h4         1 LIG       0.206000
     24 H8          -6.1310    -3.1320     2.3470 ha         1 LIG       0.168000
@<TRIPOS>BOND
     1     1     2 1   
     2     2     3 ar  
     3     2    16 ar  
     4     3     4 ar  
     5     3    17 1   
     6     4     5 1   
     7     4    13 ar  
     8     5     6 1   
     9     5    12 2   
    10     6     7 1   
    11     6    10 2   
    12     7     8 1   
    13     7    18 1   
    14     7    19 1   
    15     8     9 1   
    16     9    20 1   
    17     9    21 1   
    18     9    22 1   
    19    10    11 1   
    20    10    23 1   
    21    11    13 1   
    22    13    14 ar  
    23    14    15 1   
    24    14    16 ar  
    25    16    24 1   
@<TRIPOS>SUBSTRUCTURE
     1 LIG         1 TEMP              0 ****  ****    0 ROOT
