@<TRIPOS>MOLECULE
LIG
   25    26     1     0     0
SMALL
bcc


@<TRIPOS>ATOM
      1 Cl1         -9.2930    -1.1620     1.5370 cl         1 LIG      -0.071400
      2 C1          -7.6040    -1.1440     1.0630 ca         1 LIG      -0.013600
      3 C2          -6.9540     0.0750     0.8460 ca         1 LIG      -0.044000
      4 C3          -5.5980     0.0940     0.4660 ca         1 LIG      -0.201600
      5 C4          -4.9090     1.2970     0.2370 c          1 LIG       0.593900
      6 C5          -3.5560     1.2580    -0.1420 cc         1 LIG      -0.281400
      7 C6          -2.8100     2.5590    -0.3900 c3         1 LIG       0.211000
      8 N1          -1.4100     2.3560    -0.7870 n3         1 LIG      -0.833200
      9 C7          -0.7220     3.6400    -0.9300 c3         1 LIG       0.150100
     10 C8          -2.9390    -0.0020    -0.2740 cd         1 LIG       0.106100
     11 O1          -3.6210    -1.1210    -0.0510 os         1 LIG      -0.207200
     12 O2          -5.4790     2.3700     0.3640 o          1 LIG      -0.539100
     13 C9          -4.9020    -1.1240     0.3060 ca         1 LIG       0.142100
     14 C10         -5.5650    -2.3410     0.5260 ca         1 LIG      -0.006600
     15 Cl2         -4.7150    -3.8670     0.3310 cl         1 LIG      -0.051400
     16 C11         -6.9120    -2.3480     0.9030 ca         1 LIG      -0.075000
     17 H1          -7.5040     0.9990     0.9740 ha         1 LIG       0.179000
     18 H2          -2.8440     3.1510     0.5510 h1         1 LIG       0.055700
     19 H3          -3.3410     3.1260    -1.1880 h1         1 LIG       0.055700
     20 H4          -1.3860     1.8800    -1.7190 hn         1 LIG       0.359800
     21 H5          -0.7270     4.1930     0.0330 h1         1 LIG       0.033033
     22 H6          -1.2030     4.2590    -1.7180 h1         1 LIG       0.033033
     23 H7           0.3340     3.4610    -1.2190 h1         1 LIG       0.033033
     24 H8          -1.9000    -0.0850    -0.5570 h4         1 LIG       0.202000
     25 H9          -7.4210    -3.2880     1.0720 ha         1 LIG       0.168000
@<TRIPOS>BOND
     1     1     2 1   
     2     2     3 ar  
     3     2    16 ar  
     4     3     4 ar  
     5     3    17 1   
     6     4     5 1   
     7     4    13 ar  
     8     5     6 1   
     9     5    12 2   
    10     6     7 1   
    11     6    10 2   
    12     7     8 1   
    13     7    18 1   
    14     7    19 1   
    15     8     9 1   
    16     8    20 1   
    17     9    21 1   
    18     9    22 1   
    19     9    23 1   
    20    10    11 1   
    21    10    24 1   
    22    11    13 1   
    23    13    14 ar  
    24    14    15 1   
    25    14    16 ar  
    26    16    25 1   
@<TRIPOS>SUBSTRUCTURE
     1 LIG         1 TEMP              0 ****  ****    0 ROOT
