@<TRIPOS>MOLECULE
LIG
   26    27     1     0     0
SMALL
bcc


@<TRIPOS>ATOM
      1 O1         -10.4780    -0.0530     0.8110 o          1 LIG      -0.204500
      2 N1          -9.5650    -0.3190     0.0880 no         1 LIG       0.319200
      3 C1          -8.9470     0.7020    -0.7000 ca         1 LIG      -0.217200
      4 C2          -9.4030     2.0330    -0.6310 ca         1 LIG      -0.023000
      5 C3          -8.8020     3.0310    -1.4020 ca         1 LIG      -0.166000
      6 C4          -7.7400     2.7210    -2.2550 ca         1 LIG       0.177100
      7 C5          -7.2670     1.3950    -2.3380 ca         1 LIG      -0.230600
      8 C6          -6.2000     1.1180    -3.2090 c          1 LIG       0.593900
      9 C7          -5.6400     2.1590    -3.9700 cc         1 LIG      -0.271400
     10 C8          -4.4980     1.8710    -4.9230 c3         1 LIG       0.187600
     11 O2          -4.0900     3.0370    -5.6090 os         1 LIG      -0.439600
     12 C9          -3.1320     2.6950    -6.5850 c3         1 LIG       0.119700
     13 C10         -6.1750     3.4530    -3.8220 cd         1 LIG       0.103100
     14 O3          -7.1840     3.6820    -2.9870 os         1 LIG      -0.213200
     15 O4          -5.7620    -0.0180    -3.3100 o          1 LIG      -0.530100
     16 C11         -7.8730     0.3910    -1.5590 ca         1 LIG       0.018000
     17 O5          -9.1790    -1.4470     0.0270 o          1 LIG      -0.204500
     18 H1         -10.2260     2.2990     0.0200 ha         1 LIG       0.179000
     19 H2          -9.1660     4.0490    -1.3390 ha         1 LIG       0.171000
     20 H3          -4.8660     1.1040    -5.6430 h1         1 LIG       0.055700
     21 H4          -3.6500     1.4650    -4.3270 h1         1 LIG       0.055700
     22 H5          -2.8110     3.6230    -7.1000 h1         1 LIG       0.038367
     23 H6          -3.5680     2.0280    -7.3620 h1         1 LIG       0.038367
     24 H7          -2.2250     2.2450    -6.1240 h1         1 LIG       0.038367
     25 H8          -5.7750     4.2840    -4.3870 h4         1 LIG       0.208000
     26 H9          -7.5130    -0.6290    -1.6210 ha         1 LIG       0.197000
@<TRIPOS>BOND
     1     1     2 1   
     2     2     3 1   
     3     2    17 1   
     4     3     4 ar  
     5     3    16 ar  
     6     4     5 ar  
     7     4    18 1   
     8     5     6 ar  
     9     5    19 1   
    10     6     7 ar  
    11     6    14 1   
    12     7     8 1   
    13     7    16 ar  
    14     8     9 1   
    15     8    15 2   
    16     9    10 1   
    17     9    13 2   
    18    10    11 1   
    19    10    20 1   
    20    10    21 1   
    21    11    12 1   
    22    12    22 1   
    23    12    23 1   
    24    12    24 1   
    25    13    14 1   
    26    13    25 1   
    27    16    26 1   
@<TRIPOS>SUBSTRUCTURE
     1 LIG         1 TEMP              0 ****  ****    0 ROOT
