@<TRIPOS>MOLECULE
LIG
   29    30     1     0     0
SMALL
bcc


@<TRIPOS>ATOM
      1 C1          -8.8860     1.3870    -0.2450 c3         1 LIG       0.116700
      2 O1          -7.4870     1.2550    -0.3570 os         1 LIG      -0.420600
      3 C2          -7.1870     0.1820    -1.2240 c3         1 LIG       0.173700
      4 C3          -5.6950     0.1030    -1.4050 ca         1 LIG      -0.088300
      5 C4          -5.0000     1.1910    -1.9590 ca         1 LIG      -0.091000
      6 C5          -3.5930     1.1490    -2.1470 cp         1 LIG      -0.040000
      7 C6          -2.8380     2.3270    -2.7470 cp         1 LIG      -0.037000
      8 C7          -3.4870     3.5610    -3.0180 ca         1 LIG      -0.118500
      9 C8          -2.7850     4.6370    -3.5690 ca         1 LIG      -0.131500
     10 C9          -1.4310     4.5180    -3.8640 ca         1 LIG      -0.128000
     11 C10         -0.7690     3.3220    -3.6100 ca         1 LIG      -0.131500
     12 C11         -1.4560     2.2360    -3.0580 ca         1 LIG      -0.118500
     13 C12         -2.9190    -0.0350    -1.7530 ca         1 LIG      -0.118000
     14 C13         -3.6170    -1.1120    -1.2030 ca         1 LIG      -0.131000
     15 C14         -4.9950    -1.0470    -1.0290 ca         1 LIG      -0.127000
     16 H1          -9.1020     2.2250     0.4490 h1         1 LIG       0.034033
     17 H2          -9.3460     0.4740     0.1940 h1         1 LIG       0.034033
     18 H3          -9.3470     1.6480    -1.2240 h1         1 LIG       0.034033
     19 H4          -7.6370     0.3420    -2.2310 h1         1 LIG       0.036700
     20 H5          -7.5670    -0.7740    -0.7960 h1         1 LIG       0.036700
     21 H6          -5.5830     2.0500    -2.2400 ha         1 LIG       0.154000
     22 H7          -4.5280     3.7220    -2.8080 ha         1 LIG       0.136500
     23 H8          -3.2980     5.5700    -3.7660 ha         1 LIG       0.131500
     24 H9          -0.8940     5.3560    -4.2910 ha         1 LIG       0.131000
     25 H10          0.2850     3.2310    -3.8420 ha         1 LIG       0.131500
     26 H11         -0.8860     1.3400    -2.8940 ha         1 LIG       0.136500
     27 H12         -1.8550    -0.1510    -1.8520 ha         1 LIG       0.135000
     28 H13         -3.0810    -2.0060    -0.9080 ha         1 LIG       0.132000
     29 H14         -5.5160    -1.8950    -0.6010 ha         1 LIG       0.130000
@<TRIPOS>BOND
     1     1     2 1   
     2     1    16 1   
     3     1    17 1   
     4     1    18 1   
     5     2     3 1   
     6     3     4 1   
     7     3    19 1   
     8     3    20 1   
     9     4     5 ar  
    10     4    15 ar  
    11     5     6 ar  
    12     5    21 1   
    13     6     7 1   
    14     6    13 ar  
    15     7     8 ar  
    16     7    12 ar  
    17     8     9 ar  
    18     8    22 1   
    19     9    10 ar  
    20     9    23 1   
    21    10    11 ar  
    22    10    24 1   
    23    11    12 ar  
    24    11    25 1   
    25    12    26 1   
    26    13    14 ar  
    27    13    27 1   
    28    14    15 ar  
    29    14    28 1   
    30    15    29 1   
@<TRIPOS>SUBSTRUCTURE
     1 LIG         1 TEMP              0 ****  ****    0 ROOT
