@<TRIPOS>MOLECULE
LIG
   23    24     1     0     0
SMALL
bcc


@<TRIPOS>ATOM
      1 C1          -9.3710     1.0810     0.0790 c3         1 LIG       0.152100
      2 N1          -7.9100     1.1140     0.0230 n3         1 LIG      -0.828200
      3 C2          -7.3590     1.7770     1.2080 c3         1 LIG       0.236000
      4 C3          -5.8620     1.7210     1.1770 cc         1 LIG      -0.144400
      5 C4          -4.9870     2.8050     1.1560 cd         1 LIG      -0.099100
      6 N2          -3.7080     2.3620     1.1340 na         1 LIG      -0.287100
      7 C5          -3.7750     1.0200     1.1430 ca         1 LIG       0.417800
      8 C6          -5.0690     0.5910     1.1700 ca         1 LIG      -0.183100
      9 C7          -5.3710    -0.7660     1.1860 ca         1 LIG      -0.039000
     10 C8          -4.2950    -1.6710     1.1730 ca         1 LIG      -0.280300
     11 C9          -2.9670    -1.1830     1.1450 ca         1 LIG       0.413200
     12 N3          -2.7230     0.1640     1.1310 nb         1 LIG      -0.674000
     13 H1          -9.7640     0.5860    -0.8350 h1         1 LIG       0.029033
     14 H2          -9.7900     2.1100     0.1310 h1         1 LIG       0.029033
     15 H3          -9.7100     0.4940     0.9600 h1         1 LIG       0.029033
     16 H4          -7.6240     1.6500    -0.8300 hn         1 LIG       0.364800
     17 H5          -7.7050     1.2630     2.1320 h1         1 LIG       0.035700
     18 H6          -7.6940     2.8380     1.2420 h1         1 LIG       0.035700
     19 H7          -5.2670     3.8510     1.1560 h4         1 LIG       0.168000
     20 H8          -2.8430     2.9470     1.1150 hn         1 LIG       0.309700
     21 H9          -6.3950    -1.1160     1.2080 ha         1 LIG       0.156000
     22 H10         -4.4820    -2.7370     1.1850 ha         1 LIG       0.141000
     23 H11         -2.1380    -1.8770     1.1360 h4         1 LIG       0.019100
@<TRIPOS>BOND
     1     1     2 1   
     2     1    13 1   
     3     1    14 1   
     4     1    15 1   
     5     2     3 1   
     6     2    16 1   
     7     3     4 1   
     8     3    17 1   
     9     3    18 1   
    10     4     5 2   
    11     4     8 1   
    12     5     6 1   
    13     5    19 1   
    14     6     7 1   
    15     6    20 1   
    16     7     8 ar  
    17     7    12 ar  
    18     8     9 ar  
    19     9    10 ar  
    20     9    21 1   
    21    10    11 ar  
    22    10    22 1   
    23    11    12 ar  
    24    11    23 1   
@<TRIPOS>SUBSTRUCTURE
     1 LIG         1 TEMP              0 ****  ****    0 ROOT
