@<TRIPOS>MOLECULE
LIG
   18    17     1     0     0
SMALL
bcc


@<TRIPOS>ATOM
      1 C1          -7.7840     1.5580    -0.0340 c3         1 LIG      -0.090600
      2 C2          -6.6420     2.5140     0.3740 c3         1 LIG      -0.069700
      3 C3          -5.2720     1.9790    -0.0990 c3         1 LIG       0.129400
      4 O1          -4.9920     0.7280     0.5690 os         1 LIG      -0.422600
      5 C4          -3.7330     0.1240     0.2020 c3         1 LIG       0.116700
      6 C5          -6.8890     3.9210    -0.2100 c3         1 LIG      -0.090600
      7 H1          -7.6450     0.5730     0.4180 hc         1 LIG       0.036200
      8 H2          -7.8210     1.4360    -1.1190 hc         1 LIG       0.036200
      9 H3          -8.7480     1.9470     0.3020 hc         1 LIG       0.036200
     10 H4          -6.6270     2.5930     1.4640 hc         1 LIG       0.064700
     11 H5          -4.4860     2.6960     0.1540 h1         1 LIG       0.026200
     12 H6          -5.2820     1.8190    -1.1820 h1         1 LIG       0.026200
     13 H7          -3.6160    -0.8110     0.7560 h1         1 LIG       0.031033
     14 H8          -2.9140     0.8040     0.4560 h1         1 LIG       0.031033
     15 H9          -3.7270    -0.0840    -0.8710 h1         1 LIG       0.031033
     16 H10         -6.9110     3.8910    -1.3020 hc         1 LIG       0.036200
     17 H11         -6.1000     4.6090     0.1010 hc         1 LIG       0.036200
     18 H12         -7.8430     4.3200     0.1430 hc         1 LIG       0.036200
@<TRIPOS>BOND
     1     1     2 1   
     2     1     7 1   
     3     1     8 1   
     4     1     9 1   
     5     2     3 1   
     6     2     6 1   
     7     2    10 1   
     8     3     4 1   
     9     3    11 1   
    10     3    12 1   
    11     4     5 1   
    12     5    13 1   
    13     5    14 1   
    14     5    15 1   
    15     6    16 1   
    16     6    17 1   
    17     6    18 1   
@<TRIPOS>SUBSTRUCTURE
     1 LIG         1 TEMP              0 ****  ****    0 ROOT
