@<TRIPOS>MOLECULE
LIG
   15    15     1     0     0
SMALL
bcc


@<TRIPOS>ATOM
      1 C1          -7.9930     2.0920    -0.5760 c3         1 LIG       0.120700
      2 O1          -6.6180     2.0550    -0.2680 os         1 LIG      -0.432600
      3 C2          -5.9450     1.2800    -1.2360 c3         1 LIG       0.099100
      4 C3          -4.4900     1.2580    -0.9060 cc         1 LIG       0.364700
      5 N1          -3.7060     2.3630    -0.8340 nd         1 LIG      -0.641000
      6 C4          -2.4000     2.0540    -0.5120 cd         1 LIG       0.330200
      7 C5          -2.1400     0.6870    -0.3260 cc         1 LIG      -0.281400
      8 S1          -3.5820    -0.0820    -0.5780 ss         1 LIG      -0.009300
      9 H1          -8.5050     2.7090     0.1900 h1         1 LIG       0.037700
     10 H2          -8.4450     1.0760    -0.5310 h1         1 LIG       0.037700
     11 H3          -8.1750     2.5780    -1.5600 h1         1 LIG       0.037700
     12 H4          -6.0510     1.7290    -2.2500 h1         1 LIG       0.056700
     13 H5          -6.3230     0.2330    -1.2350 h1         1 LIG       0.056700
     14 H6          -1.6390     2.8160    -0.4120 h4         1 LIG       0.043100
     15 H7          -1.1910     0.2360    -0.0710 h4         1 LIG       0.180000
@<TRIPOS>BOND
     1     1     2 1   
     2     1     9 1   
     3     1    10 1   
     4     1    11 1   
     5     2     3 1   
     6     3     4 1   
     7     3    12 1   
     8     3    13 1   
     9     4     5 2   
    10     4     8 1   
    11     5     6 1   
    12     6     7 2   
    13     6    14 1   
    14     7     8 1   
    15     7    15 1   
@<TRIPOS>SUBSTRUCTURE
     1 LIG         1 TEMP              0 ****  ****    0 ROOT
