@<TRIPOS>MOLECULE
LIG
   30    31     1     0     0
SMALL
bcc


@<TRIPOS>ATOM
      1 C1          -9.9550     2.7580     1.1300 c3         1 LIG       0.150100
      2 N1          -8.6630     2.7350     0.4450 n3         1 LIG      -0.824200
      3 C2          -7.6990     1.9040     1.1770 c3         1 LIG       0.198100
      4 C3          -6.3850     1.8150     0.4230 ca         1 LIG      -0.070300
      5 C4          -5.6010     2.9840     0.3710 ca         1 LIG      -0.133000
      6 C5          -4.3410     2.9790    -0.2210 ca         1 LIG      -0.127000
      7 C6          -3.8320     1.8070    -0.7650 ca         1 LIG      -0.130000
      8 C7          -4.5840     0.6340    -0.7350 ca         1 LIG      -0.120000
      9 C8          -5.8750     0.6060    -0.1590 cp         1 LIG      -0.019000
     10 C9          -6.6430    -0.6870    -0.2220 cp         1 LIG      -0.047000
     11 C10         -5.9680    -1.9200    -0.0810 ca         1 LIG      -0.114500
     12 C11         -6.6660    -3.1290    -0.1570 ca         1 LIG      -0.135500
     13 C12         -8.0410    -3.1310    -0.3880 ca         1 LIG      -0.127000
     14 C13         -8.7220    -1.9250    -0.5520 ca         1 LIG      -0.135500
     15 C14         -8.0320    -0.7120    -0.4750 ca         1 LIG      -0.114500
     16 H1         -10.6640     3.3940     0.5580 h1         1 LIG       0.030033
     17 H2          -9.8520     3.1760     2.1560 h1         1 LIG       0.030033
     18 H3         -10.3820     1.7330     1.1850 h1         1 LIG       0.030033
     19 H4          -8.3080     3.7180     0.3870 hn         1 LIG       0.359800
     20 H5          -8.1300     0.9100     1.3900 h1         1 LIG       0.043700
     21 H6          -7.4990     2.3350     2.1840 h1         1 LIG       0.043700
     22 H7          -5.9630     3.9040     0.8130 ha         1 LIG       0.128000
     23 H8          -3.7520     3.8870    -0.2470 ha         1 LIG       0.132000
     24 H9          -2.8500     1.8070    -1.2220 ha         1 LIG       0.133000
     25 H10         -4.1620    -0.2510    -1.1920 ha         1 LIG       0.137000
     26 H11         -4.9020    -1.9510     0.1070 ha         1 LIG       0.144500
     27 H12         -6.1380    -4.0660    -0.0350 ha         1 LIG       0.132000
     28 H13         -8.5790    -4.0680    -0.4500 ha         1 LIG       0.130000
     29 H14         -9.7860    -1.9280    -0.7480 ha         1 LIG       0.132000
     30 H15         -8.5840     0.2020    -0.6400 ha         1 LIG       0.144500
@<TRIPOS>BOND
     1     1     2 1   
     2     1    16 1   
     3     1    17 1   
     4     1    18 1   
     5     2     3 1   
     6     2    19 1   
     7     3     4 1   
     8     3    20 1   
     9     3    21 1   
    10     4     5 ar  
    11     4     9 ar  
    12     5     6 ar  
    13     5    22 1   
    14     6     7 ar  
    15     6    23 1   
    16     7     8 ar  
    17     7    24 1   
    18     8     9 ar  
    19     8    25 1   
    20     9    10 1   
    21    10    11 ar  
    22    10    15 ar  
    23    11    12 ar  
    24    11    26 1   
    25    12    13 ar  
    26    12    27 1   
    27    13    14 ar  
    28    13    28 1   
    29    14    15 ar  
    30    14    29 1   
    31    15    30 1   
@<TRIPOS>SUBSTRUCTURE
     1 LIG         1 TEMP              0 ****  ****    0 ROOT
