@<TRIPOS>MOLECULE
LIG
   16    16     1     0     0
SMALL
bcc


@<TRIPOS>ATOM
      1 C1          -8.7790     2.7910     0.0920 c3         1 LIG       0.152100
      2 N1          -7.3680     2.4550     0.2820 n3         1 LIG      -0.834200
      3 C2          -6.7740     1.9780    -0.9710 c3         1 LIG       0.126500
      4 C3          -5.3160     1.7130    -0.7760 cc         1 LIG       0.369700
      5 N2          -4.7240     0.5060    -0.9570 nd         1 LIG      -0.637000
      6 C4          -3.3670     0.5500    -0.7120 cd         1 LIG       0.328200
      7 C5          -2.8710     1.8060    -0.3330 cc         1 LIG      -0.274400
      8 S1          -4.1780     2.8200    -0.3210 ss         1 LIG      -0.035300
      9 H1          -9.2050     3.1440     1.0550 h1         1 LIG       0.033700
     10 H2          -9.3550     1.9030    -0.2460 h1         1 LIG       0.033700
     11 H3          -8.8840     3.6100    -0.6510 h1         1 LIG       0.033700
     12 H4          -7.3040     1.6960     1.0000 hn         1 LIG       0.364800
     13 H5          -6.8820     2.7490    -1.7650 h1         1 LIG       0.058200
     14 H6          -7.2800     1.0440    -1.3040 h1         1 LIG       0.058200
     15 H7          -2.7390    -0.3250    -0.8090 h4         1 LIG       0.043100
     16 H8          -1.8450     2.0550    -0.0980 h4         1 LIG       0.180000
@<TRIPOS>BOND
     1     1     2 1   
     2     1     9 1   
     3     1    10 1   
     4     1    11 1   
     5     2     3 1   
     6     2    12 1   
     7     3     4 1   
     8     3    13 1   
     9     3    14 1   
    10     4     5 2   
    11     4     8 1   
    12     5     6 1   
    13     6     7 2   
    14     6    15 1   
    15     7     8 1   
    16     7    16 1   
@<TRIPOS>SUBSTRUCTURE
     1 LIG         1 TEMP              0 ****  ****    0 ROOT
