@<TRIPOS>MOLECULE
LIG
   22    21     1     0     0
SMALL
bcc


@<TRIPOS>ATOM
      1 C1          -7.0210     1.7230     1.1790 c3         1 LIG      -0.085767
      2 C2          -5.7300     1.6980     0.3320 c3         1 LIG      -0.058000
      3 C3          -4.6520     2.5700     1.0080 c3         1 LIG      -0.085767
      4 C4          -5.2100     0.2440     0.1490 c3         1 LIG       0.169800
      5 N1          -4.8350    -0.3900     1.4220 n3         1 LIG      -0.826200
      6 C5          -4.2600    -1.7150     1.1870 c3         1 LIG       0.154100
      7 C6          -6.0470     2.2840    -1.0590 c3         1 LIG      -0.085767
      8 H1          -6.8430     1.3590     2.2110 hc         1 LIG       0.035367
      9 H2          -7.8060     1.0910     0.7110 hc         1 LIG       0.035367
     10 H3          -7.4130     2.7600     1.2620 hc         1 LIG       0.035367
     11 H4          -4.4040     2.1840     2.0190 hc         1 LIG       0.035367
     12 H5          -5.0080     3.6180     1.1180 hc         1 LIG       0.035367
     13 H6          -3.7210     2.5830     0.4010 hc         1 LIG       0.035367
     14 H7          -4.3150     0.2770    -0.5140 h1         1 LIG       0.028200
     15 H8          -5.9880    -0.3700    -0.3610 h1         1 LIG       0.028200
     16 H9          -5.6840    -0.5250     2.0160 hn         1 LIG       0.357800
     17 H10         -3.3470    -1.6380     0.5590 h1         1 LIG       0.027700
     18 H11         -4.9990    -2.3820     0.6880 h1         1 LIG       0.027700
     19 H12         -3.9730    -2.1720     2.1570 h1         1 LIG       0.027700
     20 H13         -6.4200     3.3270    -0.9720 hc         1 LIG       0.035367
     21 H14         -6.8240     1.6790    -1.5730 hc         1 LIG       0.035367
     22 H15         -5.1370     2.2960    -1.6980 hc         1 LIG       0.035367
@<TRIPOS>BOND
     1     1     2 1   
     2     1     8 1   
     3     1     9 1   
     4     1    10 1   
     5     2     3 1   
     6     2     4 1   
     7     2     7 1   
     8     3    11 1   
     9     3    12 1   
    10     3    13 1   
    11     4     5 1   
    12     4    14 1   
    13     4    15 1   
    14     5     6 1   
    15     5    16 1   
    16     6    17 1   
    17     6    18 1   
    18     6    19 1   
    19     7    20 1   
    20     7    21 1   
    21     7    22 1   
@<TRIPOS>SUBSTRUCTURE
     1 LIG         1 TEMP              0 ****  ****    0 ROOT
