@<TRIPOS>MOLECULE
LIG
   24    23     1     0     0
SMALL
bcc


@<TRIPOS>ATOM
      1 C1          -8.4500     3.3270     0.7770 c3         1 LIG      -0.094100
      2 C2          -7.1200     3.0840     0.0610 c3         1 LIG      -0.075400
      3 C3          -6.3890     1.7640     0.4340 c3         1 LIG      -0.068700
      4 C4          -7.1900     0.4970     0.0410 c3         1 LIG       0.131400
      5 O1          -8.3890     0.4190     0.7810 os         1 LIG      -0.423600
      6 C5          -9.1470    -0.6820     0.3350 c3         1 LIG       0.115700
      7 C6          -4.9980     1.7870    -0.2580 c3         1 LIG      -0.075400
      8 C7          -4.0720     0.6350     0.1390 c3         1 LIG      -0.094100
      9 H1          -8.8290     4.3350     0.5060 hc         1 LIG       0.035533
     10 H2          -8.3080     3.2870     1.8780 hc         1 LIG       0.035533
     11 H3          -9.2260     2.6020     0.4670 hc         1 LIG       0.035533
     12 H4          -6.4600     3.9340     0.3430 hc         1 LIG       0.038200
     13 H5          -7.2880     3.1320    -1.0380 hc         1 LIG       0.038200
     14 H6          -6.2200     1.7540     1.5340 hc         1 LIG       0.072700
     15 H7          -6.5840    -0.4010     0.2860 h1         1 LIG       0.026700
     16 H8          -7.3860     0.5330    -1.0560 h1         1 LIG       0.026700
     17 H9         -10.0770    -0.7310     0.9380 h1         1 LIG       0.031033
     18 H10         -8.6050    -1.6410     0.4950 h1         1 LIG       0.031033
     19 H11         -9.4550    -0.5580    -0.7270 h1         1 LIG       0.031033
     20 H12         -4.4750     2.7240     0.0350 hc         1 LIG       0.038200
     21 H13         -5.1200     1.7920    -1.3630 hc         1 LIG       0.038200
     22 H14         -3.9240     0.6220     1.2400 hc         1 LIG       0.035533
     23 H15         -3.0840     0.7770    -0.3470 hc         1 LIG       0.035533
     24 H16         -4.4630    -0.3460    -0.1950 hc         1 LIG       0.035533
@<TRIPOS>BOND
     1     1     2 1   
     2     1     9 1   
     3     1    10 1   
     4     1    11 1   
     5     2     3 1   
     6     2    12 1   
     7     2    13 1   
     8     3     4 1   
     9     3     7 1   
    10     3    14 1   
    11     4     5 1   
    12     4    15 1   
    13     4    16 1   
    14     5     6 1   
    15     6    17 1   
    16     6    18 1   
    17     6    19 1   
    18     7     8 1   
    19     7    20 1   
    20     7    21 1   
    21     8    22 1   
    22     8    23 1   
    23     8    24 1   
@<TRIPOS>SUBSTRUCTURE
     1 LIG         1 TEMP              0 ****  ****    0 ROOT
