@<TRIPOS>MOLECULE
LIG
   19    19     1     0     0
SMALL
bcc


@<TRIPOS>ATOM
      1 C1          -7.3710     2.3710    -0.4940 c3         1 LIG       0.151100
      2 N1          -5.9100     2.3680    -0.4110 n3         1 LIG      -0.821200
      3 C2          -5.4580     1.6380     0.7810 c3         1 LIG       0.201100
      4 C3          -3.9510     1.5830     0.8310 ca         1 LIG      -0.045300
      5 C4          -3.1980     2.7620     0.9400 ca         1 LIG      -0.240300
      6 C5          -1.8040     2.6880     0.9890 ca         1 LIG       0.394700
      7 N2          -1.1810     1.4810     0.9320 nb         1 LIG      -0.664000
      8 C6          -1.8850     0.3220     0.8290 ca         1 LIG       0.394700
      9 C7          -3.2810     0.3510     0.7780 ca         1 LIG      -0.240300
     10 H1          -7.6860     2.9250    -1.4030 h1         1 LIG       0.031367
     11 H2          -7.8160     2.8680     0.3950 h1         1 LIG       0.031367
     12 H3          -7.7570     1.3320    -0.5740 h1         1 LIG       0.031367
     13 H4          -5.5910     3.3630    -0.3560 hn         1 LIG       0.361800
     14 H5          -5.8700     0.6040     0.7510 h1         1 LIG       0.041700
     15 H6          -5.8330     2.1300     1.7060 h1         1 LIG       0.041700
     16 H7          -3.6850     3.7280     0.9910 ha         1 LIG       0.143000
     17 H8          -1.2170     3.5930     1.0730 h4         1 LIG       0.022600
     18 H9          -1.3620    -0.6230     0.7880 h4         1 LIG       0.022600
     19 H10         -3.8330    -0.5770     0.6970 ha         1 LIG       0.143000
@<TRIPOS>BOND
     1     1     2 1   
     2     1    10 1   
     3     1    11 1   
     4     1    12 1   
     5     2     3 1   
     6     2    13 1   
     7     3     4 1   
     8     3    14 1   
     9     3    15 1   
    10     4     5 ar  
    11     4     9 ar  
    12     5     6 ar  
    13     5    16 1   
    14     6     7 ar  
    15     6    17 1   
    16     7     8 ar  
    17     8     9 ar  
    18     8    18 1   
    19     9    19 1   
@<TRIPOS>SUBSTRUCTURE
     1 LIG         1 TEMP              0 ****  ****    0 ROOT
