@<TRIPOS>MOLECULE
LIG
   18    18     1     0     0
SMALL
bcc


@<TRIPOS>ATOM
      1 C1          -7.7420     0.3250     2.5910 c3         1 LIG       0.116700
      2 O1          -6.4530     0.1210     2.0580 os         1 LIG      -0.419600
      3 C2          -5.9730     1.3350     1.5160 c3         1 LIG       0.167700
      4 C3          -4.5520     1.1930     1.0230 ca         1 LIG      -0.049300
      5 C4          -3.9180     2.3020     0.4460 ca         1 LIG      -0.234800
      6 C5          -2.6040     2.1870    -0.0150 ca         1 LIG       0.391200
      7 N1          -1.9420     1.0050     0.0960 nb         1 LIG      -0.665000
      8 C6          -2.5300    -0.0880     0.6500 ca         1 LIG       0.391200
      9 C7          -3.8420    -0.0180     1.1240 ca         1 LIG      -0.234800
     10 H1          -8.1320    -0.6520     2.9430 h1         1 LIG       0.035367
     11 H2          -8.4520     0.6950     1.8180 h1         1 LIG       0.035367
     12 H3          -7.7080     1.0020     3.4720 h1         1 LIG       0.035367
     13 H4          -5.9730     2.1360     2.2910 h1         1 LIG       0.042700
     14 H5          -6.6010     1.6390     0.6480 h1         1 LIG       0.042700
     15 H6          -4.4390     3.2480     0.3540 ha         1 LIG       0.151000
     16 H7          -2.1110     3.0410    -0.4610 h4         1 LIG       0.021600
     17 H8          -1.9770    -1.0150     0.7250 h4         1 LIG       0.021600
     18 H9          -4.2920    -0.8990     1.5620 ha         1 LIG       0.151000
@<TRIPOS>BOND
     1     1     2 1   
     2     1    10 1   
     3     1    11 1   
     4     1    12 1   
     5     2     3 1   
     6     3     4 1   
     7     3    13 1   
     8     3    14 1   
     9     4     5 ar  
    10     4     9 ar  
    11     5     6 ar  
    12     5    15 1   
    13     6     7 ar  
    14     6    16 1   
    15     7     8 ar  
    16     8     9 ar  
    17     8    17 1   
    18     9    18 1   
@<TRIPOS>SUBSTRUCTURE
     1 LIG         1 TEMP              0 ****  ****    0 ROOT
