@<TRIPOS>MOLECULE
LIG
   29    30     1     0     0
SMALL
bcc


@<TRIPOS>ATOM
      1 C1          -8.7340     2.7520    -0.0780 c3         1 LIG       0.113700
      2 O1          -7.3320     2.6200    -0.1210 os         1 LIG      -0.418600
      3 C2          -6.8740     2.0680     1.0950 c3         1 LIG       0.166700
      4 C3          -5.3630     1.9840     1.0630 ca         1 LIG      -0.072300
      5 C4          -4.6680     3.2080     1.0550 ca         1 LIG      -0.109000
      6 C5          -3.2770     3.2450     1.1110 ca         1 LIG      -0.132000
      7 C6          -2.5520     2.0630     1.1830 ca         1 LIG      -0.124000
      8 C7          -3.2100     0.8340     1.1840 ca         1 LIG      -0.125000
      9 C8          -4.6200     0.7570     1.1080 cp         1 LIG      -0.017000
     10 C9          -5.2440    -0.6110     1.0530 cp         1 LIG      -0.046000
     11 C10         -4.6890    -1.6740     1.7990 ca         1 LIG      -0.117000
     12 C11         -5.2460    -2.9550     1.7400 ca         1 LIG      -0.135500
     13 C12         -6.3520    -3.2010     0.9270 ca         1 LIG      -0.127000
     14 C13         -6.9010    -2.1700     0.1660 ca         1 LIG      -0.135500
     15 C14         -6.3520    -0.8850     0.2220 ca         1 LIG      -0.117000
     16 H1          -9.0720     3.1960    -1.0370 h1         1 LIG       0.033367
     17 H2          -9.0530     3.4460     0.7310 h1         1 LIG       0.033367
     18 H3          -9.2310     1.7600     0.0140 h1         1 LIG       0.033367
     19 H4          -7.3550     1.0960     1.3060 h1         1 LIG       0.038700
     20 H5          -7.1430     2.7250     1.9540 h1         1 LIG       0.038700
     21 H6          -5.2140     4.1430     1.0250 ha         1 LIG       0.136000
     22 H7          -2.7610     4.1970     1.1100 ha         1 LIG       0.133000
     23 H8          -1.4710     2.0960     1.2290 ha         1 LIG       0.132000
     24 H9          -2.6070    -0.0640     1.2130 ha         1 LIG       0.136000
     25 H10         -3.8350    -1.5120     2.4440 ha         1 LIG       0.144500
     26 H11         -4.8170    -3.7580     2.3250 ha         1 LIG       0.131500
     27 H12         -6.7790    -4.1950     0.8810 ha         1 LIG       0.131000
     28 H13         -7.7490    -2.3670    -0.4770 ha         1 LIG       0.131500
     29 H14         -6.7800    -0.1180    -0.4080 ha         1 LIG       0.144500
@<TRIPOS>BOND
     1     1     2 1   
     2     1    16 1   
     3     1    17 1   
     4     1    18 1   
     5     2     3 1   
     6     3     4 1   
     7     3    19 1   
     8     3    20 1   
     9     4     5 ar  
    10     4     9 ar  
    11     5     6 ar  
    12     5    21 1   
    13     6     7 ar  
    14     6    22 1   
    15     7     8 ar  
    16     7    23 1   
    17     8     9 ar  
    18     8    24 1   
    19     9    10 1   
    20    10    11 ar  
    21    10    15 ar  
    22    11    12 ar  
    23    11    25 1   
    24    12    13 ar  
    25    12    26 1   
    26    13    14 ar  
    27    13    27 1   
    28    14    15 ar  
    29    14    28 1   
    30    15    29 1   
@<TRIPOS>SUBSTRUCTURE
     1 LIG         1 TEMP              0 ****  ****    0 ROOT
