@<TRIPOS>MOLECULE
LIG
   30    31     1     0     0
SMALL
bcc


@<TRIPOS>ATOM
      1 C1          -9.8840    -2.0410     1.5930 c3         1 LIG       0.152100
      2 N1          -8.5220    -2.0040     1.0610 n3         1 LIG      -0.827200
      3 C2          -7.6080    -1.3620     2.0120 c3         1 LIG       0.206100
      4 C3          -6.2090    -1.3480     1.4510 ca         1 LIG      -0.096300
      5 C4          -5.5500    -0.1300     1.2090 ca         1 LIG      -0.114000
      6 C5          -4.2410    -0.1000     0.6660 cp         1 LIG      -0.040000
      7 C6          -3.5340     1.2140     0.3920 cp         1 LIG      -0.037000
      8 C7          -4.0280     2.4390     0.9110 ca         1 LIG      -0.119000
      9 C8          -3.3730     3.6460     0.6490 ca         1 LIG      -0.130500
     10 C9          -2.2220     3.6670    -0.1320 ca         1 LIG      -0.128000
     11 C10         -1.7170     2.4800    -0.6550 ca         1 LIG      -0.130500
     12 C11         -2.3580     1.2650    -0.3990 ca         1 LIG      -0.119000
     13 C12         -3.6180    -1.3420     0.3840 ca         1 LIG      -0.117000
     14 C13         -4.2760    -2.5480     0.6340 ca         1 LIG      -0.135000
     15 C14         -5.5630    -2.5540     1.1620 ca         1 LIG      -0.107000
     16 H1         -10.5540    -2.5300     0.8540 h1         1 LIG       0.030033
     17 H2         -10.2620    -1.0120     1.7840 h1         1 LIG       0.030033
     18 H3          -9.9170    -2.6320     2.5340 h1         1 LIG       0.030033
     19 H4          -8.5330    -1.4480     0.1730 hn         1 LIG       0.362800
     20 H5          -7.5960    -1.9230     2.9720 h1         1 LIG       0.037200
     21 H6          -7.9560    -0.3250     2.2230 h1         1 LIG       0.037200
     22 H7          -6.0840     0.7770     1.4310 ha         1 LIG       0.135000
     23 H8          -4.9060     2.4850     1.5310 ha         1 LIG       0.134500
     24 H9          -3.7630     4.5690     1.0580 ha         1 LIG       0.132000
     25 H10         -1.7210     4.6050    -0.3340 ha         1 LIG       0.131000
     26 H11         -0.8230     2.5000    -1.2660 ha         1 LIG       0.132000
     27 H12         -1.9280     0.3820    -0.8410 ha         1 LIG       0.134500
     28 H13         -2.6210    -1.4020    -0.0160 ha         1 LIG       0.135000
     29 H14         -3.7810    -3.4860     0.4160 ha         1 LIG       0.133000
     30 H15         -6.0600    -3.4980     1.3470 ha         1 LIG       0.147000
@<TRIPOS>BOND
     1     1     2 1   
     2     1    16 1   
     3     1    17 1   
     4     1    18 1   
     5     2     3 1   
     6     2    19 1   
     7     3     4 1   
     8     3    20 1   
     9     3    21 1   
    10     4     5 ar  
    11     4    15 ar  
    12     5     6 ar  
    13     5    22 1   
    14     6     7 1   
    15     6    13 ar  
    16     7     8 ar  
    17     7    12 ar  
    18     8     9 ar  
    19     8    23 1   
    20     9    10 ar  
    21     9    24 1   
    22    10    11 ar  
    23    10    25 1   
    24    11    12 ar  
    25    11    26 1   
    26    12    27 1   
    27    13    14 ar  
    28    13    28 1   
    29    14    15 ar  
    30    14    29 1   
    31    15    30 1   
@<TRIPOS>SUBSTRUCTURE
     1 LIG         1 TEMP              0 ****  ****    0 ROOT
