@<TRIPOS>MOLECULE
LIG
   19    18     1     0     0
SMALL
bcc


@<TRIPOS>ATOM
      1 C1          -6.0140     0.8560     0.4850 c3         1 LIG      -0.089100
      2 C2          -4.7230     0.7200     1.3240 c3         1 LIG      -0.068700
      3 C3          -3.7080     1.8350     0.9820 c3         1 LIG       0.163800
      4 N1          -4.2300     3.1650     1.3540 n3         1 LIG      -0.827200
      5 C4          -3.2920     4.2510     1.0160 c3         1 LIG       0.154100
      6 C5          -4.0820    -0.6630     1.0890 c3         1 LIG      -0.089100
      7 H1          -6.5130     1.8070     0.6870 hc         1 LIG       0.035867
      8 H2          -6.7140     0.0530     0.7270 hc         1 LIG       0.035867
      9 H3          -5.7900     0.8070    -0.5830 hc         1 LIG       0.035867
     10 H4          -4.9860     0.7970     2.3830 hc         1 LIG       0.042700
     11 H5          -3.4880     1.8120    -0.0900 h1         1 LIG       0.028700
     12 H6          -2.7790     1.6540     1.5300 h1         1 LIG       0.028700
     13 H7          -4.4410     3.1870     2.3500 hn         1 LIG       0.355800
     14 H8          -3.0870     4.2490    -0.0580 h1         1 LIG       0.028367
     15 H9          -2.3540     4.1190     1.5630 h1         1 LIG       0.028367
     16 H10         -3.7320     5.2120     1.2910 h1         1 LIG       0.028367
     17 H11         -3.7990    -0.7880     0.0410 hc         1 LIG       0.035867
     18 H12         -4.7810    -1.4600     1.3540 hc         1 LIG       0.035867
     19 H13         -3.1870    -0.7800     1.7030 hc         1 LIG       0.035867
@<TRIPOS>BOND
     1     1     2 1   
     2     1     7 1   
     3     1     8 1   
     4     1     9 1   
     5     2     3 1   
     6     2     6 1   
     7     2    10 1   
     8     3     4 1   
     9     3    11 1   
    10     3    12 1   
    11     4     5 1   
    12     4    13 1   
    13     5    14 1   
    14     5    15 1   
    15     5    16 1   
    16     6    17 1   
    17     6    18 1   
    18     6    19 1   
@<TRIPOS>SUBSTRUCTURE
     1 LIG         1 TEMP              0 ****  ****    0 ROOT
