@<TRIPOS>MOLECULE
LIG
   22    23     1     0     0
SMALL
bcc


@<TRIPOS>ATOM
      1 C1          -9.3540     2.6000     0.3980 c3         1 LIG       0.117700
      2 O1          -7.9680     2.6910     0.1600 os         1 LIG      -0.425600
      3 C2          -7.4820     1.4310    -0.2500 c3         1 LIG       0.204600
      4 C3          -6.0100     1.5130    -0.5270 cc         1 LIG      -0.149400
      5 C4          -5.1830     2.6330    -0.4190 cd         1 LIG      -0.064100
      6 N1          -3.9150     2.3010    -0.7580 na         1 LIG      -0.289100
      7 C5          -3.9390     0.9960    -1.0740 ca         1 LIG       0.420800
      8 C6          -5.1960     0.4810    -0.9470 ca         1 LIG      -0.189100
      9 C7          -5.4500    -0.8580    -1.2250 ca         1 LIG      -0.052000
     10 C8          -4.3670    -1.6520    -1.6410 ca         1 LIG      -0.274300
     11 C9          -3.0790    -1.0760    -1.7600 ca         1 LIG       0.410200
     12 N2          -2.8810     0.2470    -1.4730 nb         1 LIG      -0.670000
     13 H1          -9.7160     3.5940     0.7310 h1         1 LIG       0.033367
     14 H2          -9.5790     1.8820     1.2180 h1         1 LIG       0.033367
     15 H3          -9.9080     2.3450    -0.5320 h1         1 LIG       0.033367
     16 H4          -7.9800     1.1040    -1.1910 h1         1 LIG       0.034700
     17 H5          -7.6290     0.6740     0.5540 h1         1 LIG       0.034700
     18 H6          -5.4860     3.6260    -0.1130 h4         1 LIG       0.183000
     19 H7          -3.0850     2.9340    -0.7690 hn         1 LIG       0.310700
     20 H8          -6.4440    -1.2750    -1.1270 ha         1 LIG       0.136000
     21 H9          -4.5170    -2.6990    -1.8690 ha         1 LIG       0.141000
     22 H10         -2.2440    -1.6860    -2.0800 h4         1 LIG       0.020100
@<TRIPOS>BOND
     1     1     2 1   
     2     1    13 1   
     3     1    14 1   
     4     1    15 1   
     5     2     3 1   
     6     3     4 1   
     7     3    16 1   
     8     3    17 1   
     9     4     5 2   
    10     4     8 1   
    11     5     6 1   
    12     5    18 1   
    13     6     7 1   
    14     6    19 1   
    15     7     8 ar  
    16     7    12 ar  
    17     8     9 ar  
    18     9    10 ar  
    19     9    20 1   
    20    10    11 ar  
    21    10    21 1   
    22    11    12 ar  
    23    11    22 1   
@<TRIPOS>SUBSTRUCTURE
     1 LIG         1 TEMP              0 ****  ****    0 ROOT
