@<TRIPOS>MOLECULE
LIG
   29    30     1     0     0
SMALL
bcc


@<TRIPOS>ATOM
      1 C1          -8.3040     0.5030     0.6120 c3         1 LIG       0.116700
      2 O1          -6.8960     0.5540     0.6380 os         1 LIG      -0.420600
      3 C2          -6.4670     1.0200     1.8990 c3         1 LIG       0.172700
      4 C3          -4.9630     1.0230     1.9330 ca         1 LIG      -0.085300
      5 C4          -4.2550     2.2100     2.1400 ca         1 LIG      -0.117500
      6 C5          -2.8580     2.2090     2.1720 ca         1 LIG      -0.120000
      7 C6          -4.2580    -0.1700     1.7580 ca         1 LIG      -0.117500
      8 C7          -2.8610    -0.1830     1.7880 ca         1 LIG      -0.120000
      9 C8          -2.1210     1.0090     1.9960 cp         1 LIG      -0.037000
     10 C9          -0.5980     1.0020     2.0290 cp         1 LIG      -0.036000
     11 C10          0.1450     2.2050     2.1590 ca         1 LIG      -0.118500
     12 C11          1.5430     2.1900     2.1880 ca         1 LIG      -0.131000
     13 C12          2.2360     0.9880     2.0890 ca         1 LIG      -0.128000
     14 C13          1.5360    -0.2070     1.9610 ca         1 LIG      -0.131000
     15 C14          0.1380    -0.2090     1.9300 ca         1 LIG      -0.118500
     16 H1          -8.6220     0.1320    -0.3840 h1         1 LIG       0.034033
     17 H2          -8.7480     1.5150     0.7390 h1         1 LIG       0.034033
     18 H3          -8.6980    -0.2140     1.3670 h1         1 LIG       0.034033
     19 H4          -6.8190     0.3470     2.7140 h1         1 LIG       0.036700
     20 H5          -6.8500     2.0520     2.0780 h1         1 LIG       0.036700
     21 H6          -4.7840     3.1450     2.2800 ha         1 LIG       0.141500
     22 H7          -2.3810     3.1570     2.3390 ha         1 LIG       0.135500
     23 H8          -4.7940    -1.0980     1.5970 ha         1 LIG       0.141500
     24 H9          -2.3870    -1.1360     1.6420 ha         1 LIG       0.135500
     25 H10         -0.3260     3.1680     2.2350 ha         1 LIG       0.134500
     26 H11          2.0900     3.1190     2.2860 ha         1 LIG       0.131500
     27 H12          3.3180     0.9830     2.1120 ha         1 LIG       0.131000
     28 H13          2.0780    -1.1410     1.8860 ha         1 LIG       0.131500
     29 H14         -0.3390    -1.1670     1.8330 ha         1 LIG       0.134500
@<TRIPOS>BOND
     1     1     2 1   
     2     1    16 1   
     3     1    17 1   
     4     1    18 1   
     5     2     3 1   
     6     3     4 1   
     7     3    19 1   
     8     3    20 1   
     9     4     5 ar  
    10     4     7 ar  
    11     5     6 ar  
    12     5    21 1   
    13     6     9 ar  
    14     6    22 1   
    15     7     8 ar  
    16     7    23 1   
    17     8     9 ar  
    18     8    24 1   
    19     9    10 1   
    20    10    11 ar  
    21    10    15 ar  
    22    11    12 ar  
    23    11    25 1   
    24    12    13 ar  
    25    12    26 1   
    26    13    14 ar  
    27    13    27 1   
    28    14    15 ar  
    29    14    28 1   
    30    15    29 1   
@<TRIPOS>SUBSTRUCTURE
     1 LIG         1 TEMP              0 ****  ****    0 ROOT
