@<TRIPOS>MOLECULE
LIG
   25    24     1     0     0
SMALL
bcc


@<TRIPOS>ATOM
      1 C1          -6.8740    -1.2510     0.2320 c3         1 LIG      -0.094100
      2 C2          -5.7310    -0.5000    -0.4520 c3         1 LIG      -0.072900
      3 C3          -4.9530     0.4400     0.5050 c3         1 LIG      -0.061700
      4 C4          -5.8290     1.5290     1.1790 c3         1 LIG       0.167800
      5 N1          -6.4960     2.4070     0.2090 n3         1 LIG      -0.826200
      6 C5          -7.2100     3.4860     0.8900 c3         1 LIG       0.153100
      7 C6          -3.6850     1.0210    -0.1800 c3         1 LIG      -0.072900
      8 C7          -3.9210     1.9200    -1.3970 c3         1 LIG      -0.094100
      9 H1          -7.3490    -1.9410    -0.4960 hc         1 LIG       0.033700
     10 H2          -7.6550    -0.5520     0.5950 hc         1 LIG       0.033700
     11 H3          -6.4860    -1.8480     1.0850 hc         1 LIG       0.033700
     12 H4          -6.1420     0.0620    -1.3160 hc         1 LIG       0.039700
     13 H5          -5.0250    -1.2620    -0.8490 hc         1 LIG       0.039700
     14 H6          -4.5650    -0.1940     1.3340 hc         1 LIG       0.043700
     15 H7          -5.1740     2.1300     1.8490 h1         1 LIG       0.026700
     16 H8          -6.5930     1.0450     1.8250 h1         1 LIG       0.026700
     17 H9          -7.1980     1.8570    -0.3350 hn         1 LIG       0.358800
     18 H10         -6.5010     4.1140     1.4700 h1         1 LIG       0.027700
     19 H11         -7.9900     3.0770     1.5700 h1         1 LIG       0.027700
     20 H12         -7.7050     4.1340     0.1360 h1         1 LIG       0.027700
     21 H13         -3.0490     0.1710    -0.5100 hc         1 LIG       0.039700
     22 H14         -3.1020     1.5970     0.5710 hc         1 LIG       0.039700
     23 H15         -4.4660     1.3790    -2.1970 hc         1 LIG       0.033700
     24 H16         -2.9390     2.2360    -1.8080 hc         1 LIG       0.033700
     25 H17         -4.4720     2.8410    -1.1240 hc         1 LIG       0.033700
@<TRIPOS>BOND
     1     1     2 1   
     2     1     9 1   
     3     1    10 1   
     4     1    11 1   
     5     2     3 1   
     6     2    12 1   
     7     2    13 1   
     8     3     4 1   
     9     3     7 1   
    10     3    14 1   
    11     4     5 1   
    12     4    15 1   
    13     4    16 1   
    14     5     6 1   
    15     5    17 1   
    16     6    18 1   
    17     6    19 1   
    18     6    20 1   
    19     7     8 1   
    20     7    21 1   
    21     7    22 1   
    22     8    23 1   
    23     8    24 1   
    24     8    25 1   
@<TRIPOS>SUBSTRUCTURE
     1 LIG         1 TEMP              0 ****  ****    0 ROOT
