@<TRIPOS>MOLECULE
LIG
   27    28     1     0     0
SMALL
bcc


@<TRIPOS>ATOM
      1 O1          -7.1440    -0.3760     0.7660 o          1 LIG      -0.204000
      2 N1          -6.8550     0.7710     0.9290 no         1 LIG       0.319200
      3 C1          -5.5000     1.2040     0.7840 ca         1 LIG      -0.217200
      4 C2          -5.1580     2.5580     0.9760 ca         1 LIG      -0.023000
      5 C3          -3.8360     2.9830     0.8340 ca         1 LIG      -0.166000
      6 C4          -2.8320     2.0710     0.4990 ca         1 LIG       0.176100
      7 C5          -3.1520     0.7120     0.3030 ca         1 LIG      -0.231600
      8 C6          -2.1180    -0.1780    -0.0340 c          1 LIG       0.592900
      9 C7          -0.8040     0.3050    -0.1640 cc         1 LIG      -0.269400
     10 C8           0.3160    -0.6540    -0.5330 c3         1 LIG       0.209000
     11 N2           1.6290     0.0010    -0.6140 n3         1 LIG      -0.833200
     12 C9           2.6470    -0.9350    -1.0920 c3         1 LIG       0.149100
     13 C10         -0.5770     1.6790     0.0490 cd         1 LIG       0.097100
     14 O2          -1.5790     2.4940     0.3670 os         1 LIG      -0.215200
     15 O3          -2.3560    -1.3630    -0.2130 o          1 LIG      -0.529100
     16 C11         -4.4860     0.2850     0.4460 ca         1 LIG       0.018000
     17 O4          -7.7120     1.5530     1.2150 o          1 LIG      -0.204000
     18 H1          -5.9170     3.2850     1.2360 ha         1 LIG       0.179000
     19 H2          -3.5900     4.0270     0.9850 ha         1 LIG       0.170000
     20 H3           0.0630    -1.1020    -1.5190 h1         1 LIG       0.058200
     21 H4           0.3560    -1.4670     0.2280 h1         1 LIG       0.058200
     22 H5           1.9090     0.3160     0.3440 hn         1 LIG       0.360800
     23 H6           2.3980    -1.2900    -2.1150 h1         1 LIG       0.034367
     24 H7           2.7380    -1.8060    -0.4050 h1         1 LIG       0.034367
     25 H8           3.6290    -0.4180    -1.1370 h1         1 LIG       0.034367
     26 H9           0.4140     2.1000    -0.0450 h4         1 LIG       0.205000
     27 H10         -4.7370    -0.7580     0.2960 ha         1 LIG       0.197000
@<TRIPOS>BOND
     1     1     2 1   
     2     2     3 1   
     3     2    17 1   
     4     3     4 ar  
     5     3    16 ar  
     6     4     5 ar  
     7     4    18 1   
     8     5     6 ar  
     9     5    19 1   
    10     6     7 ar  
    11     6    14 1   
    12     7     8 1   
    13     7    16 ar  
    14     8     9 1   
    15     8    15 2   
    16     9    10 1   
    17     9    13 2   
    18    10    11 1   
    19    10    20 1   
    20    10    21 1   
    21    11    12 1   
    22    11    22 1   
    23    12    23 1   
    24    12    24 1   
    25    12    25 1   
    26    13    14 1   
    27    13    26 1   
    28    16    27 1   
@<TRIPOS>SUBSTRUCTURE
     1 LIG         1 TEMP              0 ****  ****    0 ROOT
