@<TRIPOS>MOLECULE
LIG
   21    20     1     0     0
SMALL
bcc


@<TRIPOS>ATOM
      1 C1          -7.5670    -0.5700    -0.8330 c3         1 LIG      -0.085433
      2 C2          -6.1830    -0.5620    -0.1510 c3         1 LIG      -0.054000
      3 C3          -5.0940    -0.8780    -1.1960 c3         1 LIG      -0.085433
      4 C4          -5.9170     0.8200     0.4930 c3         1 LIG       0.133400
      5 O1          -5.9360     1.8330    -0.4940 os         1 LIG      -0.420600
      6 C5          -5.6880     3.0810     0.1110 c3         1 LIG       0.116700
      7 C6          -6.1570    -1.6450     0.9460 c3         1 LIG      -0.085433
      8 H1          -7.6170     0.1930    -1.6390 hc         1 LIG       0.037478
      9 H2          -8.3680    -0.3510    -0.0950 hc         1 LIG       0.037478
     10 H3          -7.7740    -1.5630    -1.2870 hc         1 LIG       0.037478
     11 H4          -5.0930    -0.1210    -2.0100 hc         1 LIG       0.037478
     12 H5          -5.2680    -1.8750    -1.6550 hc         1 LIG       0.037478
     13 H6          -4.0880    -0.8830    -0.7240 hc         1 LIG       0.037478
     14 H7          -4.9210     0.7880     0.9940 h1         1 LIG       0.025700
     15 H8          -6.7080     1.0110     1.2560 h1         1 LIG       0.025700
     16 H9          -5.7090     3.8600    -0.6780 h1         1 LIG       0.031033
     17 H10         -4.6760     3.1130     0.5730 h1         1 LIG       0.031033
     18 H11         -6.4820     3.3400     0.8460 h1         1 LIG       0.031033
     19 H12         -6.3460    -2.6500     0.5110 hc         1 LIG       0.037478
     20 H13         -6.9370    -1.4470     1.7130 hc         1 LIG       0.037478
     21 H14         -5.1680    -1.6660     1.4530 hc         1 LIG       0.037478
@<TRIPOS>BOND
     1     1     2 1   
     2     1     8 1   
     3     1     9 1   
     4     1    10 1   
     5     2     3 1   
     6     2     4 1   
     7     2     7 1   
     8     3    11 1   
     9     3    12 1   
    10     3    13 1   
    11     4     5 1   
    12     4    14 1   
    13     4    15 1   
    14     5     6 1   
    15     6    16 1   
    16     6    17 1   
    17     6    18 1   
    18     7    19 1   
    19     7    20 1   
    20     7    21 1   
@<TRIPOS>SUBSTRUCTURE
     1 LIG         1 TEMP              0 ****  ****    0 ROOT
