@<TRIPOS>MOLECULE
LIG
   24    23     1     0     0
SMALL
bcc


@<TRIPOS>ATOM
      1 C1          -6.9790     4.1810     0.1120 c3         1 LIG      -0.089100
      2 C2          -5.6940     3.5790    -0.4490 c3         1 LIG      -0.080400
      3 C3          -5.5340     2.0290    -0.3980 c3         1 LIG      -0.046700
      4 C4          -6.5910     1.2380    -1.2300 c3         1 LIG       0.143800
      5 N1          -7.8800     1.0940    -0.5340 n3         1 LIG      -0.823200
      6 C5          -8.7840     0.2240    -1.2890 c3         1 LIG       0.160100
      7 C6          -4.1040     1.7140    -0.9240 c3         1 LIG      -0.193400
      8 C7          -3.6290     0.2980    -0.6990 c          1 LIG       0.908600
      9 O1          -4.3880    -0.5950    -0.0260 o          1 LIG      -0.850300
     10 O2          -2.5240    -0.0320    -1.1020 o          1 LIG      -0.850300
     11 H1          -6.8700     5.2860     0.1490 hc         1 LIG       0.023033
     12 H2          -7.1700     3.8110     1.1410 hc         1 LIG       0.023033
     13 H3          -7.8390     3.9950    -0.5540 hc         1 LIG       0.023033
     14 H4          -4.8710     4.0110     0.1650 hc         1 LIG       0.023700
     15 H5          -5.5640     3.9450    -1.4920 hc         1 LIG       0.023700
     16 H6          -5.5760     1.6970     0.6630 hc         1 LIG       0.065700
     17 H7          -6.2130     0.2090    -1.3910 h1         1 LIG       0.056700
     18 H8          -6.7120     1.6930    -2.2390 h1         1 LIG       0.056700
     19 H9          -8.3650     2.0030    -0.4280 hn         1 LIG       0.335800
     20 H10         -8.3520    -0.7950    -1.3920 h1         1 LIG       0.015033
     21 H11         -8.9870     0.6470    -2.2980 h1         1 LIG       0.015033
     22 H12         -9.7480     0.1320    -0.7460 h1         1 LIG       0.015033
     23 H13         -3.3650     2.3590    -0.4000 hc         1 LIG       0.022700
     24 H14         -4.0580     1.9510    -2.0100 hc         1 LIG       0.022700
@<TRIPOS>BOND
     1     1     2 1   
     2     1    11 1   
     3     1    12 1   
     4     1    13 1   
     5     2     3 1   
     6     2    14 1   
     7     2    15 1   
     8     3     4 1   
     9     3     7 1   
    10     3    16 1   
    11     4     5 1   
    12     4    17 1   
    13     4    18 1   
    14     5     6 1   
    15     5    19 1   
    16     6    20 1   
    17     6    21 1   
    18     6    22 1   
    19     7     8 1   
    20     7    23 1   
    21     7    24 1   
    22     8     9 1   
    23     8    10 1   
@<TRIPOS>SUBSTRUCTURE
     1 LIG         1 TEMP              0 ****  ****    0 ROOT
