@<TRIPOS>MOLECULE
LIG
   25    26     1     0     0
SMALL
bcc


@<TRIPOS>ATOM
      1 F1          -9.1720     2.2370     0.0660 f          1 LIG      -0.133900
      2 C2          -7.8170     2.2460     0.1060 ca         1 LIG       0.092900
      3 C3          -7.1280     3.4620     0.1140 ca         1 LIG      -0.115000
      4 C4          -5.7310     3.4770     0.1540 ca         1 LIG      -0.131000
      5 C5          -5.0140     2.2750     0.1840 ca         1 LIG       0.120100
      6 O6          -3.6860     2.3020     0.2180 os         1 LIG      -0.219200
      7 C7          -2.9480     1.1960     0.2440 cc         1 LIG       0.104100
      8 C8          -3.5520    -0.0780     0.2410 cd         1 LIG      -0.284400
      9 C9          -2.7400    -1.3620     0.2630 c3         1 LIG       0.211000
     10 N10         -1.2910    -1.1250     0.2880 n3         1 LIG      -0.832200
     11 C11         -0.5570    -2.3850     0.1680 c3         1 LIG       0.150100
     12 C12         -4.9560    -0.1450     0.2070 c          1 LIG       0.592900
     13 O13         -5.5180    -1.2290     0.2010 o          1 LIG      -0.541100
     14 C14         -5.7050     1.0440     0.1770 ca         1 LIG      -0.190600
     15 C15         -7.1120     1.0380     0.1380 ca         1 LIG      -0.086000
     16 H16         -7.6760     4.3950     0.0890 ha         1 LIG       0.157000
     17 H17         -5.2040     4.4230     0.1590 ha         1 LIG       0.161000
     18 H18         -1.8720     1.3000     0.2650 h4         1 LIG       0.198000
     19 H19         -3.0040    -1.9370    -0.6520 h1         1 LIG       0.055200
     20 H20         -3.0350    -1.9580     1.1560 h1         1 LIG       0.055200
     21 H21         -1.0330    -0.6890     1.2040 hn         1 LIG       0.359800
     22 H22         -0.8010    -2.8870    -0.7930 h1         1 LIG       0.032700
     23 H23         -0.7970    -3.0650     1.0160 h1         1 LIG       0.032700
     24 H24          0.5340    -2.1790     0.1790 h1         1 LIG       0.032700
     25 H25         -7.6630     0.1060     0.1300 ha         1 LIG       0.177000
@<TRIPOS>BOND
     1     1     2 1   
     2     2     3 ar  
     3     2    15 ar  
     4     3     4 ar  
     5     3    16 1   
     6     4     5 ar  
     7     4    17 1   
     8     5     6 1   
     9     5    14 ar  
    10     6     7 1   
    11     7     8 2   
    12     7    18 1   
    13     8     9 1   
    14     8    12 1   
    15     9    10 1   
    16     9    19 1   
    17     9    20 1   
    18    10    11 1   
    19    10    21 1   
    20    11    22 1   
    21    11    23 1   
    22    11    24 1   
    23    12    13 2   
    24    12    14 1   
    25    14    15 ar  
    26    15    25 1   
@<TRIPOS>SUBSTRUCTURE
     1 LIG         1 TEMP              0 ****  ****    0 ROOT
