@<TRIPOS>MOLECULE
LIG
   19    19     1     0     0
SMALL
bcc


@<TRIPOS>ATOM
      1 C1          -8.2850     1.2420     1.0340 c3         1 LIG       0.150100
      2 N1          -6.9520     1.0940     0.4500 n3         1 LIG      -0.814200
      3 C2          -5.9110     1.2860     1.4640 c3         1 LIG       0.115500
      4 C3          -4.5620     1.0160     0.8620 ca         1 LIG       0.369600
      5 C4          -3.5700     2.0090     0.8390 ca         1 LIG      -0.246300
      6 C5          -2.3270     1.7210     0.2730 ca         1 LIG      -0.089000
      7 C6          -2.0850     0.4550    -0.2620 ca         1 LIG      -0.251300
      8 C7          -3.0930    -0.5090    -0.2220 ca         1 LIG       0.401200
      9 N2          -4.2980    -0.2130     0.3340 nb         1 LIG      -0.675000
     10 H1          -9.0500     1.0810     0.2460 h1         1 LIG       0.031033
     11 H2          -8.4210     2.2610     1.4570 h1         1 LIG       0.031033
     12 H3          -8.4450     0.4810     1.8280 h1         1 LIG       0.031033
     13 H4          -6.8360     1.8170    -0.2980 hn         1 LIG       0.375800
     14 H5          -6.0590     0.5700     2.3020 h1         1 LIG       0.062700
     15 H6          -5.9650     2.3200     1.8730 h1         1 LIG       0.062700
     16 H7          -3.7580     2.9910     1.2540 ha         1 LIG       0.143000
     17 H8          -1.5540     2.4780     0.2480 ha         1 LIG       0.138000
     18 H9          -1.1250     0.2230    -0.7040 ha         1 LIG       0.143000
     19 H10         -2.9180    -1.4940    -0.6330 h4         1 LIG       0.021100
@<TRIPOS>BOND
     1     1     2 1   
     2     1    10 1   
     3     1    11 1   
     4     1    12 1   
     5     2     3 1   
     6     2    13 1   
     7     3     4 1   
     8     3    14 1   
     9     3    15 1   
    10     4     5 ar  
    11     4     9 ar  
    12     5     6 ar  
    13     5    16 1   
    14     6     7 ar  
    15     6    17 1   
    16     7     8 ar  
    17     7    18 1   
    18     8     9 ar  
    19     8    19 1   
@<TRIPOS>SUBSTRUCTURE
     1 LIG         1 TEMP              0 ****  ****    0 ROOT
