@<TRIPOS>MOLECULE
LIG
   19    19     1     0     0
SMALL
bcc


@<TRIPOS>ATOM
      1 C1          -9.5010     2.2570     1.4550 c3         1 LIG       0.151100
      2 N1          -8.1560     2.4470     0.9100 n3         1 LIG      -0.822200
      3 C2          -7.2120     1.4970     1.5120 c3         1 LIG       0.211100
      4 C3          -5.8430     1.6440     0.8950 ca         1 LIG      -0.200600
      5 C4          -5.2560     0.5780     0.1930 ca         1 LIG       0.410200
      6 N2          -4.0190     0.7180    -0.3570 nb         1 LIG      -0.664000
      7 C5          -3.3180     1.8780    -0.2470 ca         1 LIG       0.394200
      8 C6          -3.8600     2.9620     0.4440 ca         1 LIG      -0.245300
      9 C7          -5.1270     2.8450     1.0180 ca         1 LIG      -0.093000
     10 H1         -10.1940     2.9870     0.9860 h1         1 LIG       0.031033
     11 H2          -9.5080     2.4180     2.5550 h1         1 LIG       0.031033
     12 H3          -9.8710     1.2350     1.2240 h1         1 LIG       0.031033
     13 H4          -7.8570     3.4260     1.1290 hn         1 LIG       0.360800
     14 H5          -7.5850     0.4600     1.3500 h1         1 LIG       0.039200
     15 H6          -7.1340     1.6670     2.6090 h1         1 LIG       0.039200
     16 H7          -5.7800    -0.3620     0.0830 h4         1 LIG       0.026100
     17 H8          -2.3360     1.9570    -0.6960 h4         1 LIG       0.022100
     18 H9          -3.3030     3.8850     0.5350 ha         1 LIG       0.143000
     19 H10         -5.5460     3.6840     1.5580 ha         1 LIG       0.134000
@<TRIPOS>BOND
     1     1     2 1   
     2     1    10 1   
     3     1    11 1   
     4     1    12 1   
     5     2     3 1   
     6     2    13 1   
     7     3     4 1   
     8     3    14 1   
     9     3    15 1   
    10     4     5 ar  
    11     4     9 ar  
    12     5     6 ar  
    13     5    16 1   
    14     6     7 ar  
    15     7     8 ar  
    16     7    17 1   
    17     8     9 ar  
    18     8    18 1   
    19     9    19 1   
@<TRIPOS>SUBSTRUCTURE
     1 LIG         1 TEMP              0 ****  ****    0 ROOT
