@<TRIPOS>MOLECULE
LIG
   24    25     1     0     0
SMALL
bcc


@<TRIPOS>ATOM
      1 F1          -8.9560     2.3100     1.0230 f          1 LIG      -0.134900
      2 C2          -7.6350     2.3070     0.7210 ca         1 LIG       0.092900
      3 C3          -6.9520     3.5170     0.5650 ca         1 LIG      -0.115000
      4 C4          -5.5900     3.5210     0.2530 ca         1 LIG      -0.131000
      5 C5          -4.9010     2.3130     0.0940 ca         1 LIG       0.121100
      6 O6          -3.6060     2.3280    -0.2030 os         1 LIG      -0.217200
      7 C7          -2.8960     1.2160    -0.3670 cc         1 LIG       0.110100
      8 C8          -3.4950    -0.0500    -0.2310 cd         1 LIG      -0.285400
      9 C9          -2.7060    -1.3300    -0.4150 c3         1 LIG       0.190600
     10 O10         -1.3530    -1.0630    -0.7250 os         1 LIG      -0.438600
     11 C11         -0.6690    -2.2800    -0.9210 c3         1 LIG       0.119700
     12 C12         -4.8650    -0.1080     0.0830 c          1 LIG       0.593900
     13 O13         -5.4200    -1.1880     0.2090 o          1 LIG      -0.542100
     14 C14         -5.5850     1.0870     0.2500 ca         1 LIG      -0.189600
     15 C15         -6.9570     1.0930     0.5640 ca         1 LIG      -0.086000
     16 H16         -7.4800     4.4550     0.6860 ha         1 LIG       0.157000
     17 H17         -5.0690     4.4620     0.1340 ha         1 LIG       0.161000
     18 H18         -1.8450     1.3070    -0.6090 h4         1 LIG       0.202000
     19 H19         -3.1860    -1.8990    -1.2440 h1         1 LIG       0.051700
     20 H20         -2.7730    -1.9040     0.5370 h1         1 LIG       0.051700
     21 H21          0.3930    -2.0500    -1.1440 h1         1 LIG       0.036367
     22 H22         -1.0730    -2.8350    -1.7960 h1         1 LIG       0.036367
     23 H23         -0.6790    -2.9050    -0.0000 h1         1 LIG       0.036367
     24 H24         -7.5020     0.1650     0.6890 ha         1 LIG       0.177000
@<TRIPOS>BOND
     1     1     2 1   
     2     2     3 ar  
     3     2    15 ar  
     4     3     4 ar  
     5     3    16 1   
     6     4     5 ar  
     7     4    17 1   
     8     5     6 1   
     9     5    14 ar  
    10     6     7 1   
    11     7     8 2   
    12     7    18 1   
    13     8     9 1   
    14     8    12 1   
    15     9    10 1   
    16     9    19 1   
    17     9    20 1   
    18    10    11 1   
    19    11    21 1   
    20    11    22 1   
    21    11    23 1   
    22    12    13 2   
    23    12    14 1   
    24    14    15 ar  
    25    15    24 1   
@<TRIPOS>SUBSTRUCTURE
     1 LIG         1 TEMP              0 ****  ****    0 ROOT
