@<TRIPOS>MOLECULE
LIG
   20    20     1     0     0
SMALL
bcc


@<TRIPOS>ATOM
      1 O1          -7.1280    -0.5140     4.5050 oh         1 LIG      -0.588800
      2 C1          -6.7260    -0.7090     3.1790 c3         1 LIG       0.104100
      3 C2          -5.7070     0.3200     2.8140 cc         1 LIG       0.204000
      4 O2          -4.4810     0.0430     2.4310 os         1 LIG      -0.378800
      5 C3          -5.8950     1.6880     2.8210 cd         1 LIG      -0.242300
      6 C4          -4.6980     2.2370     2.4160 cd         1 LIG      -0.226300
      7 C5          -3.8510     1.1710     2.1860 cc         1 LIG       0.246000
      8 C6          -2.4320     1.2690     1.7260 c3         1 LIG       0.098100
      9 O3          -1.8880    -0.0270     1.6020 os         1 LIG      -0.413600
     10 C7          -0.5520     0.0700     1.1630 c3         1 LIG       0.115700
     11 H1          -7.8120    -1.2090     4.6890 ho         1 LIG       0.412000
     12 H2          -7.5970    -0.6020     2.4950 h1         1 LIG       0.062700
     13 H3          -6.2760    -1.7200     3.0650 h1         1 LIG       0.062700
     14 H4          -6.7980     2.2220     3.0890 ha         1 LIG       0.163000
     15 H5          -4.4710     3.2890     2.3030 ha         1 LIG       0.173000
     16 H6          -1.8730     1.8610     2.4870 h1         1 LIG       0.048700
     17 H7          -2.4330     1.7930     0.7440 h1         1 LIG       0.048700
     18 H8          -0.1390    -0.9560     1.0740 h1         1 LIG       0.037367
     19 H9           0.0790     0.6120     1.9010 h1         1 LIG       0.037367
     20 H10         -0.4910     0.5340     0.1530 h1         1 LIG       0.037367
@<TRIPOS>BOND
     1     1     2 1   
     2     1    11 1   
     3     2     3 1   
     4     2    12 1   
     5     2    13 1   
     6     3     4 1   
     7     3     5 2   
     8     4     7 1   
     9     5     6 1   
    10     5    14 1   
    11     6     7 2   
    12     6    15 1   
    13     7     8 1   
    14     8     9 1   
    15     8    16 1   
    16     8    17 1   
    17     9    10 1   
    18    10    18 1   
    19    10    19 1   
    20    10    20 1   
@<TRIPOS>SUBSTRUCTURE
     1 LIG         1 TEMP              0 ****  ****    0 ROOT
