@<TRIPOS>MOLECULE
LIG
   18    18     1     0     0
SMALL
bcc


@<TRIPOS>ATOM
      1 C1          -9.1460     0.4790     0.4240 c3         1 LIG       0.117700
      2 O1          -7.7570     0.4560     0.1900 os         1 LIG      -0.427600
      3 C2          -7.2520     1.7750     0.2480 c3         1 LIG       0.077100
      4 C3          -5.7650     1.7680     0.0380 ca         1 LIG       0.398600
      5 C4          -5.0510     2.9750     0.0520 ca         1 LIG      -0.218300
      6 C5          -3.6690     2.9570    -0.1430 ca         1 LIG      -0.097000
      7 C6          -3.0150     1.7420    -0.3510 ca         1 LIG      -0.248300
      8 C7          -3.7550     0.5590    -0.3600 ca         1 LIG       0.395200
      9 N1          -5.1020     0.5950    -0.1680 nb         1 LIG      -0.671000
     10 H1          -9.5290    -0.5600     0.3490 h1         1 LIG       0.035033
     11 H2          -9.6800     1.0770    -0.3470 h1         1 LIG       0.035033
     12 H3          -9.3770     0.8380     1.4520 h1         1 LIG       0.035033
     13 H4          -7.4480     2.2260     1.2470 h1         1 LIG       0.051700
     14 H5          -7.7050     2.3990    -0.5570 h1         1 LIG       0.051700
     15 H6          -5.5620     3.9160     0.2140 ha         1 LIG       0.163000
     16 H7          -3.1070     3.8820    -0.1340 ha         1 LIG       0.138000
     17 H8          -1.9430     1.7180    -0.5030 ha         1 LIG       0.142000
     18 H9          -3.2600    -0.3900    -0.5200 h4         1 LIG       0.021100
@<TRIPOS>BOND
     1     1     2 1   
     2     1    10 1   
     3     1    11 1   
     4     1    12 1   
     5     2     3 1   
     6     3     4 1   
     7     3    13 1   
     8     3    14 1   
     9     4     5 ar  
    10     4     9 ar  
    11     5     6 ar  
    12     5    15 1   
    13     6     7 ar  
    14     6    16 1   
    15     7     8 ar  
    16     7    17 1   
    17     8     9 ar  
    18     8    18 1   
@<TRIPOS>SUBSTRUCTURE
     1 LIG         1 TEMP              0 ****  ****    0 ROOT
