@<TRIPOS>MOLECULE
LIG
   17    17     1     0     0
SMALL
bcc


@<TRIPOS>ATOM
      1 C1         -10.0270     1.9540    -0.5530 c3         1 LIG       0.146100
      2 N1          -8.5910     2.0120    -0.2760 n3         1 LIG      -0.814200
      3 C2          -7.8220     2.0670    -1.5220 c3         1 LIG       0.131500
      4 C3          -6.3680     2.2240    -1.2110 cc         1 LIG       0.203000
      5 C4          -5.3580     1.3570    -1.5720 cd         1 LIG      -0.254300
      6 C5          -4.1960     1.9060    -1.0760 cd         1 LIG      -0.262300
      7 C6          -4.5630     3.0770    -0.4430 cc         1 LIG       0.237600
      8 O1          -5.8640     3.2370    -0.5420 os         1 LIG      -0.369800
      9 H1         -10.5850     1.9070     0.4050 h1         1 LIG       0.033033
     10 H2         -10.2790     1.0530    -1.1550 h1         1 LIG       0.033033
     11 H3         -10.3520     2.8690    -1.0950 h1         1 LIG       0.033033
     12 H4          -8.3220     1.1480     0.2520 hn         1 LIG       0.369800
     13 H5          -8.1390     2.9430    -2.1290 h1         1 LIG       0.069700
     14 H6          -7.9860     1.1400    -2.1170 h1         1 LIG       0.069700
     15 H7          -5.4540     0.4340    -2.1280 ha         1 LIG       0.161000
     16 H8          -3.1970     1.5030    -1.1660 ha         1 LIG       0.161000
     17 H9          -3.8980     3.7660     0.0600 h4         1 LIG       0.052100
@<TRIPOS>BOND
     1     1     2 1   
     2     1     9 1   
     3     1    10 1   
     4     1    11 1   
     5     2     3 1   
     6     2    12 1   
     7     3     4 1   
     8     3    13 1   
     9     3    14 1   
    10     4     5 2   
    11     4     8 1   
    12     5     6 1   
    13     5    15 1   
    14     6     7 2   
    15     6    16 1   
    16     7     8 1   
    17     7    17 1   
@<TRIPOS>SUBSTRUCTURE
     1 LIG         1 TEMP              0 ****  ****    0 ROOT
