@<TRIPOS>MOLECULE
LIG
   23    22     1     0     0
SMALL
bcc


@<TRIPOS>ATOM
      1 C1          -6.9550     2.1870     2.8960 c3         1 LIG      -0.092100
      2 C2          -5.9110     2.4610     1.8130 c3         1 LIG      -0.070400
      3 C3          -4.4820     1.9280     2.1160 c3         1 LIG      -0.084700
      4 C4          -4.4350     0.3810     2.2160 c3         1 LIG       0.136400
      5 O1          -5.1480    -0.0620     3.3510 os         1 LIG      -0.454600
      6 C5          -5.1780    -1.4710     3.3700 c3         1 LIG       0.092700
      7 C6          -3.5370     2.4280     0.9900 c3         1 LIG      -0.193400
      8 C7          -2.0640     2.2180     1.2480 c          1 LIG       0.904600
      9 O2          -1.6260     1.6900     2.4120 o          1 LIG      -0.852300
     10 O3          -1.2550     2.5670     0.4010 o          1 LIG      -0.852300
     11 H1          -7.9070     2.6870     2.6180 hc         1 LIG       0.025367
     12 H2          -6.6150     2.5930     3.8720 hc         1 LIG       0.025367
     13 H3          -7.1780     1.1070     2.9900 hc         1 LIG       0.025367
     14 H4          -5.8510     3.5680     1.7130 hc         1 LIG       0.023200
     15 H5          -6.2760     2.0510     0.8460 hc         1 LIG       0.023200
     16 H6          -4.1390     2.3770     3.0740 hc         1 LIG       0.079700
     17 H7          -3.3810     0.0480     2.3180 h1         1 LIG       0.044700
     18 H8          -4.8570    -0.0430     1.2760 h1         1 LIG       0.044700
     19 H9          -5.7340    -1.7950     4.2730 h1         1 LIG       0.041700
     20 H10         -4.1540    -1.8980     3.4470 h1         1 LIG       0.041700
     21 H11         -5.7250    -1.8760     2.4890 h1         1 LIG       0.041700
     22 H12         -3.6690     3.5250     0.8610 hc         1 LIG       0.024200
     23 H13         -3.8180     1.9330     0.0350 hc         1 LIG       0.024200
@<TRIPOS>BOND
     1     1     2 1   
     2     1    11 1   
     3     1    12 1   
     4     1    13 1   
     5     2     3 1   
     6     2    14 1   
     7     2    15 1   
     8     3     4 1   
     9     3     7 1   
    10     3    16 1   
    11     4     5 1   
    12     4    17 1   
    13     4    18 1   
    14     5     6 1   
    15     6    19 1   
    16     6    20 1   
    17     6    21 1   
    18     7     8 1   
    19     7    22 1   
    20     7    23 1   
    21     8     9 1   
    22     8    10 1   
@<TRIPOS>SUBSTRUCTURE
     1 LIG         1 TEMP              0 ****  ****    0 ROOT
