@<TRIPOS>MOLECULE
LIG
   25    25     1     0     0
SMALL
bcc


@<TRIPOS>ATOM
      1 O1          -1.1510     3.2030    -1.1520 o          1 LIG      -0.839800
      2 C2          -1.5550     2.6620    -0.0350 c          1 LIG       0.918600
      3 C3          -2.5260     3.5240     0.7440 c3         1 LIG      -0.178100
      4 C4          -3.9620     3.0780     0.5150 ca         1 LIG      -0.007300
      5 C5          -4.5050     2.0370     1.2710 ca         1 LIG      -0.140000
      6 C6          -5.8190     1.6240     1.0570 ca         1 LIG      -0.133000
      7 C7          -6.6020     2.2460     0.0850 ca         1 LIG      -0.166300
      8 C8          -8.0330     1.7970    -0.1500 c3         1 LIG       0.207100
      9 N9          -8.9840     2.6790     0.5510 n3         1 LIG      -0.819200
     10 C10        -10.3860     2.2690     0.3470 c3         1 LIG       0.148100
     11 C11         -6.0610     3.2870    -0.6700 ca         1 LIG      -0.133000
     12 C12         -4.7470     3.7000    -0.4570 ca         1 LIG      -0.140000
     13 O13         -1.2670     1.5240     0.2730 o          1 LIG      -0.839800
     14 H15         -2.4110     4.5730     0.4560 hc         1 LIG       0.038700
     15 H16         -2.2810     3.4650     1.8070 hc         1 LIG       0.038700
     16 H17         -3.9030     1.5390     2.0280 ha         1 LIG       0.154500
     17 H18         -6.2310     0.8120     1.6530 ha         1 LIG       0.108500
     18 H19         -8.1650     0.7710     0.2050 h1         1 LIG       0.045200
     19 H20         -8.2510     1.8130    -1.2220 h1         1 LIG       0.045200
     20 H21         -8.8560     3.6400     0.2390 hn         1 LIG       0.354800
     21 H22        -10.5350     1.2490     0.7120 h1         1 LIG       0.024700
     22 H23        -10.6380     2.3120    -0.7160 h1         1 LIG       0.024700
     23 H24        -11.0470     2.9430     0.8970 h1         1 LIG       0.024700
     24 H25         -6.6640     3.7800    -1.4290 ha         1 LIG       0.108500
     25 H26         -4.3360     4.5100    -1.0560 ha         1 LIG       0.154500
@<TRIPOS>BOND
     1     1     2 1   
     2     2     3 1   
     3     2    13 1   
     4     3     4 1   
     5     3    14 1   
     6     3    15 1   
     7     4     5 ar  
     8     4    12 ar  
     9     5     6 ar  
    10     5    16 1   
    11     6     7 ar  
    12     6    17 1   
    13     7     8 1   
    14     7    11 ar  
    15     8     9 1   
    16     8    18 1   
    17     8    19 1   
    18     9    10 1   
    19     9    20 1   
    20    10    21 1   
    21    10    22 1   
    22    10    23 1   
    23    11    12 ar  
    24    11    24 1   
    25    12    25 1   
@<TRIPOS>SUBSTRUCTURE
     1 LIG         1 TEMP              0 ****  ****    0 ROOT
