@<TRIPOS>MOLECULE
LIG
   21    21     1     0     0
SMALL
bcc


@<TRIPOS>ATOM
      1 O1          -9.3470    -0.5040     0.1970 oh         1 LIG      -0.590800
      2 C1          -7.9830    -0.4770     0.5140 c3         1 LIG       0.104100
      3 C2          -7.4310     0.9060     0.3550 cc         1 LIG       0.236000
      4 O2          -6.1760     1.2160     0.5850 os         1 LIG      -0.375800
      5 C3          -8.1220     2.0380    -0.0440 cd         1 LIG      -0.223300
      6 C4          -7.2010     3.0630    -0.0420 cd         1 LIG      -0.247300
      7 C5          -6.0060     2.5000     0.3570 cc         1 LIG       0.242000
      8 C6          -4.7070     3.2300     0.5100 c3         1 LIG       0.134500
      9 N1          -3.6490     2.3150     0.9520 n3         1 LIG      -0.822200
     10 C7          -2.3930     3.0360     1.1590 c3         1 LIG       0.151100
     11 H1          -9.6380    -1.4450     0.3180 ho         1 LIG       0.408000
     12 H2          -7.4250    -1.1550    -0.1690 h1         1 LIG       0.043200
     13 H3          -7.8350    -0.7920     1.5700 h1         1 LIG       0.043200
     14 H4          -9.1690     2.1110    -0.3060 ha         1 LIG       0.172000
     15 H5          -7.3820     4.0980    -0.3000 ha         1 LIG       0.163000
     16 H6          -4.8510     4.0360     1.2630 h1         1 LIG       0.049700
     17 H7          -4.4350     3.6890    -0.4670 h1         1 LIG       0.049700
     18 H8          -3.4910     1.5920     0.2110 hn         1 LIG       0.370800
     19 H9          -2.5150     3.8070     1.9500 h1         1 LIG       0.031033
     20 H10         -2.0530     3.5180     0.2160 h1         1 LIG       0.031033
     21 H11         -1.6100     2.3230     1.4930 h1         1 LIG       0.031033
@<TRIPOS>BOND
     1     1     2 1   
     2     1    11 1   
     3     2     3 1   
     4     2    12 1   
     5     2    13 1   
     6     3     4 1   
     7     3     5 2   
     8     4     7 1   
     9     5     6 1   
    10     5    14 1   
    11     6     7 2   
    12     6    15 1   
    13     7     8 1   
    14     8     9 1   
    15     8    16 1   
    16     8    17 1   
    17     9    10 1   
    18     9    18 1   
    19    10    19 1   
    20    10    20 1   
    21    10    21 1   
@<TRIPOS>SUBSTRUCTURE
     1 LIG         1 TEMP              0 ****  ****    0 ROOT
