@<TRIPOS>MOLECULE
LIG
   25    24     1     0     0
SMALL
bcc


@<TRIPOS>ATOM
      1 C1           1.3150     0.3910    -0.5110 c3         1 LIG      -0.094100
      2 C2           2.5350     0.4090     0.4320 c3         1 LIG      -0.072900
      3 C3           3.2990    -0.9440     0.4510 c3         1 LIG      -0.061700
      4 C4           2.4370    -2.1380     0.9470 c3         1 LIG       0.167800
      5 N5           1.7360    -1.8600     2.2170 n3         1 LIG      -0.826200
      6 C6           0.9270    -3.0040     2.6740 c3         1 LIG       0.153100
      7 C7           4.6640    -0.8360     1.1900 c3         1 LIG      -0.072900
      8 C8           4.5860    -0.4830     2.6920 c3         1 LIG      -0.094100
      9 H9           0.8560     1.3820    -0.5480 hc         1 LIG       0.033700
     10 H10          0.5600    -0.3170    -0.1640 hc         1 LIG       0.033700
     11 H11          1.6140     0.1150    -1.5250 hc         1 LIG       0.033700
     12 H12          2.2050     0.6830     1.4370 hc         1 LIG       0.039700
     13 H13          3.2150     1.1960     0.0960 hc         1 LIG       0.039700
     14 H14          3.5550    -1.1720    -0.5870 hc         1 LIG       0.043700
     15 H15          3.0780    -3.0170     1.0670 h1         1 LIG       0.026700
     16 H16          1.6920    -2.3720     0.1810 h1         1 LIG       0.026700
     17 H17          1.1440    -1.0380     2.1090 hn         1 LIG       0.358800
     18 H18          1.5650    -3.8800     2.8200 h1         1 LIG       0.027700
     19 H19          0.1560    -3.2370     1.9350 h1         1 LIG       0.027700
     20 H20          0.4460    -2.7540     3.6240 h1         1 LIG       0.027700
     21 H21          5.2710    -0.0760     0.6910 hc         1 LIG       0.039700
     22 H22          5.2030    -1.7800     1.0820 hc         1 LIG       0.039700
     23 H23          4.0410     0.4480     2.8550 hc         1 LIG       0.033700
     24 H24          5.5930    -0.3560     3.0930 hc         1 LIG       0.033700
     25 H25          4.1040    -1.2800     3.2610 hc         1 LIG       0.033700
@<TRIPOS>BOND
     1     1     2 1   
     2     1     9 1   
     3     1    10 1   
     4     1    11 1   
     5     2     3 1   
     6     2    12 1   
     7     2    13 1   
     8     3     4 1   
     9     3     7 1   
    10     3    14 1   
    11     4     5 1   
    12     4    15 1   
    13     4    16 1   
    14     5     6 1   
    15     5    17 1   
    16     6    18 1   
    17     6    19 1   
    18     6    20 1   
    19     7     8 1   
    20     7    21 1   
    21     7    22 1   
    22     8    23 1   
    23     8    24 1   
    24     8    25 1   
@<TRIPOS>SUBSTRUCTURE
     1 LIG         1 TEMP              0 ****  ****    0 ROOT
