@<TRIPOS>MOLECULE
LIG
   24    24     1     0     0
SMALL
bcc


@<TRIPOS>ATOM
      1 C1          -6.8220    -3.2620     1.1830 c3         1 LIG       0.152100
      2 N2          -5.3920    -3.0220     0.9830 n3         1 LIG      -0.824200
      3 C3          -5.1170    -1.5860     0.8620 c3         1 LIG       0.185000
      4 C4          -3.6380    -1.3560     0.7200 c2         1 LIG      -0.156200
      5 C5          -3.0080    -0.1640     0.5920 ce         1 LIG      -0.123200
      6 C6          -3.5640     1.2340     0.5520 ca         1 LIG      -0.056800
      7 C7          -2.6330     2.2850     0.4120 ca         1 LIG      -0.121000
      8 C8          -3.0520     3.6170     0.3650 ca         1 LIG      -0.130500
      9 C9          -4.4060     3.9270     0.4570 ca         1 LIG      -0.128000
     10 C10         -5.3450     2.9070     0.5960 ca         1 LIG      -0.130500
     11 C11         -4.9360     1.5690     0.6440 ca         1 LIG      -0.121000
     12 H12         -7.0040    -4.3540     1.2690 h1         1 LIG       0.030033
     13 H13         -7.4130    -2.8720     0.3250 h1         1 LIG       0.030033
     14 H14         -7.1670    -2.7810     2.1240 h1         1 LIG       0.030033
     15 H15         -5.1020    -3.5020     0.0980 hn         1 LIG       0.358800
     16 H16         -5.4630    -1.0760     1.7870 h1         1 LIG       0.041700
     17 H17         -5.6350    -1.1910    -0.0400 h1         1 LIG       0.041700
     18 H18         -3.0050    -2.2400     0.7220 ha         1 LIG       0.135000
     19 H19         -1.9260    -0.2320     0.5040 ha         1 LIG       0.128000
     20 H20         -1.5740     2.0710     0.3380 ha         1 LIG       0.133000
     21 H21         -2.3230     4.4090     0.2570 ha         1 LIG       0.131000
     22 H22         -4.7290     4.9600     0.4200 ha         1 LIG       0.131000
     23 H23         -6.3970     3.1510     0.6670 ha         1 LIG       0.131000
     24 H24         -5.7060     0.8380     0.7520 ha         1 LIG       0.133000
@<TRIPOS>BOND
     1     1     2 1   
     2     1    12 1   
     3     1    13 1   
     4     1    14 1   
     5     2     3 1   
     6     2    15 1   
     7     3     4 1   
     8     3    16 1   
     9     3    17 1   
    10     4     5 2   
    11     4    18 1   
    12     5     6 1   
    13     5    19 1   
    14     6     7 ar  
    15     6    11 ar  
    16     7     8 ar  
    17     7    20 1   
    18     8     9 ar  
    19     8    21 1   
    20     9    10 ar  
    21     9    22 1   
    22    10    11 ar  
    23    10    23 1   
    24    11    24 1   
@<TRIPOS>SUBSTRUCTURE
     1 LIG         1 TEMP              0 ****  ****    0 ROOT
