@<TRIPOS>MOLECULE
LIG
   18    18     1     0     0
SMALL
bcc


@<TRIPOS>ATOM
      1 C1         -10.3290     2.1440     0.3260 c3         1 LIG       0.116700
      2 O1          -8.9650     2.0640    -0.0210 os         1 LIG      -0.420600
      3 C2          -8.2910     1.2490     0.9140 c3         1 LIG       0.178700
      4 C3          -6.8350     1.1860     0.5450 ca         1 LIG      -0.204600
      5 C4          -6.0650     2.3580     0.5040 ca         1 LIG       0.421200
      6 N1          -4.7470     2.3000     0.1710 nb         1 LIG      -0.666000
      7 C5          -4.1390     1.1210    -0.1280 ca         1 LIG       0.393200
      8 C6          -4.8670    -0.0700    -0.0980 ca         1 LIG      -0.247300
      9 C7          -6.2200    -0.0380     0.2410 ca         1 LIG      -0.094000
     10 H1         -10.8370     2.8050    -0.4060 h1         1 LIG       0.035700
     11 H2         -10.4670     2.6050     1.3300 h1         1 LIG       0.035700
     12 H3         -10.8210     1.1480     0.2620 h1         1 LIG       0.035700
     13 H4          -8.7220     0.2210     0.9130 h1         1 LIG       0.038200
     14 H5          -8.3600     1.6810     1.9390 h1         1 LIG       0.038200
     15 H6          -6.5140     3.3150     0.7360 h4         1 LIG       0.042100
     16 H7          -3.0890     1.1070    -0.3890 h4         1 LIG       0.021100
     17 H8          -4.3850    -1.0100    -0.3340 ha         1 LIG       0.142000
     18 H9          -6.7860    -0.9610     0.2640 ha         1 LIG       0.135000
@<TRIPOS>BOND
     1     1     2 1   
     2     1    10 1   
     3     1    11 1   
     4     1    12 1   
     5     2     3 1   
     6     3     4 1   
     7     3    13 1   
     8     3    14 1   
     9     4     5 ar  
    10     4     9 ar  
    11     5     6 ar  
    12     5    15 1   
    13     6     7 ar  
    14     7     8 ar  
    15     7    16 1   
    16     8     9 ar  
    17     8    17 1   
    18     9    18 1   
@<TRIPOS>SUBSTRUCTURE
     1 LIG         1 TEMP              0 ****  ****    0 ROOT
