@<TRIPOS>MOLECULE
LIG
   24    25     1     0     0
SMALL
bcc


@<TRIPOS>ATOM
      1 O1          -3.9670    -2.0930     0.3200 o          1 LIG      -0.547100
      2 C2          -3.8910    -0.8890     0.1280 c          1 LIG       0.596900
      3 C3          -5.0540    -0.0990     0.1310 cc         1 LIG      -0.281400
      4 C4          -6.4060    -0.7410     0.3710 c3         1 LIG       0.190600
      5 O5          -7.4460     0.2140     0.3290 os         1 LIG      -0.438600
      6 C6          -8.6830    -0.4330     0.5210 c3         1 LIG       0.119700
      7 C7          -4.9210     1.2840    -0.0950 cd         1 LIG       0.107100
      8 O8          -3.7260     1.8280    -0.3060 os         1 LIG      -0.218200
      9 C9          -2.6050     1.1130    -0.3180 ca         1 LIG       0.163100
     10 C10         -1.3800     1.7490    -0.5490 ca         1 LIG      -0.201000
     11 C11         -0.1950     1.0080    -0.5650 ca         1 LIG       0.180900
     12 F12          0.9890     1.6290    -0.7890 f          1 LIG      -0.128900
     13 C13         -0.2290    -0.3730    -0.3490 ca         1 LIG      -0.201000
     14 C14         -1.4460    -1.0200    -0.1170 ca         1 LIG      -0.023000
     15 C15         -2.6450    -0.2820    -0.1000 ca         1 LIG      -0.231600
     16 H16         -6.3720    -1.2270     1.3730 h1         1 LIG       0.051700
     17 H17         -6.5530    -1.5060    -0.4250 h1         1 LIG       0.051700
     18 H18         -9.4870     0.3310     0.4800 h1         1 LIG       0.036367
     19 H19         -8.7390    -0.9120     1.5230 h1         1 LIG       0.036367
     20 H20         -8.8890    -1.1630    -0.2940 h1         1 LIG       0.036367
     21 H21         -5.7890     1.9290    -0.1010 h4         1 LIG       0.203000
     22 H22         -1.3480     2.8190    -0.7170 ha         1 LIG       0.172000
     23 H23          0.6910    -0.9450    -0.3620 ha         1 LIG       0.158000
     24 H24         -1.4510    -2.0910     0.0470 ha         1 LIG       0.167000
@<TRIPOS>BOND
     1     1     2 2   
     2     2     3 1   
     3     2    15 1   
     4     3     4 1   
     5     3     7 2   
     6     4     5 1   
     7     4    16 1   
     8     4    17 1   
     9     5     6 1   
    10     6    18 1   
    11     6    19 1   
    12     6    20 1   
    13     7     8 1   
    14     7    21 1   
    15     8     9 1   
    16     9    10 ar  
    17     9    15 ar  
    18    10    11 ar  
    19    10    22 1   
    20    11    12 1   
    21    11    13 ar  
    22    13    14 ar  
    23    13    23 1   
    24    14    15 ar  
    25    14    24 1   
@<TRIPOS>SUBSTRUCTURE
     1 LIG         1 TEMP              0 ****  ****    0 ROOT
