@<TRIPOS>MOLECULE
LIG
   24    24     1     0     0
SMALL
bcc


@<TRIPOS>ATOM
      1 C1          -6.8450     0.0480     2.3870 c3         1 LIG       0.114700
      2 O2          -5.8970     0.0170     1.3450 os         1 LIG      -0.420600
      3 C3          -6.5580     0.1370     0.1040 c3         1 LIG       0.108400
      4 C4          -5.5620     0.2420    -1.0880 c3         1 LIG       0.181500
      5 N5          -4.6240     1.4000    -1.0580 n3         1 LIG      -0.727600
      6 C6          -4.9310     2.5110    -0.1450 c3         1 LIG       0.158100
      7 C7          -3.2700     0.8470    -0.8670 c3         1 LIG       0.165800
      8 C8          -3.4580    -0.5830    -0.3880 c3         1 LIG      -0.084400
      9 C9          -4.6600    -0.9920    -1.2080 c3         1 LIG      -0.084400
     10 H10         -6.3130    -0.1140     3.3470 h1         1 LIG       0.032033
     11 H11         -7.5900    -0.7730     2.2880 h1         1 LIG       0.032033
     12 H12         -7.3390     1.0430     2.4490 h1         1 LIG       0.032033
     13 H13         -7.2170     1.0350     0.0850 h1         1 LIG       0.030700
     14 H14         -7.1910    -0.7630    -0.0710 h1         1 LIG       0.030700
     15 H15         -6.2040     0.3020    -1.9950 h1         1 LIG       0.058700
     16 H16         -5.9460     2.9090    -0.3490 h1         1 LIG       0.034033
     17 H17         -4.2140     3.3420    -0.3210 h1         1 LIG       0.034033
     18 H18         -4.8420     2.2030     0.9170 h1         1 LIG       0.034033
     19 H19         -2.6100     1.4420    -0.1980 h1         1 LIG       0.038200
     20 H20         -2.7910     0.8180    -1.8710 h1         1 LIG       0.038200
     21 H21         -3.7140    -0.5760     0.6890 hc         1 LIG       0.045700
     22 H22         -2.5620    -1.2240    -0.5240 hc         1 LIG       0.045700
     23 H23         -5.1340    -1.9580    -0.9330 hc         1 LIG       0.050700
     24 H24         -4.3150    -1.0680    -2.2660 hc         1 LIG       0.050700
@<TRIPOS>BOND
     1     1     2 1   
     2     1    10 1   
     3     1    11 1   
     4     1    12 1   
     5     2     3 1   
     6     3     4 1   
     7     3    13 1   
     8     3    14 1   
     9     4     5 1   
    10     4     9 1   
    11     4    15 1   
    12     5     6 1   
    13     5     7 1   
    14     6    16 1   
    15     6    17 1   
    16     6    18 1   
    17     7     8 1   
    18     7    19 1   
    19     7    20 1   
    20     8     9 1   
    21     8    21 1   
    22     8    22 1   
    23     9    23 1   
    24     9    24 1   
@<TRIPOS>SUBSTRUCTURE
     1 LIG         1 TEMP              0 ****  ****    0 ROOT
