@<TRIPOS>MOLECULE
LIG
   25    25     1     0     0
SMALL
bcc


@<TRIPOS>ATOM
      1 C1          -9.4190     1.8850    -0.0850 c3         1 LIG       0.153100
      2 N2          -8.0670     1.6670    -0.6020 n3         1 LIG      -0.829200
      3 C3          -7.1370     1.3650     0.4940 c3         1 LIG       0.136800
      4 C4          -5.7110     0.9500     0.0180 c3         1 LIG       0.176500
      5 N5          -5.5960    -0.3190    -0.7640 n3         1 LIG      -0.732600
      6 C6          -6.8270    -1.0980    -0.9790 c3         1 LIG       0.164100
      7 C7          -4.9600     0.0500    -2.0420 c3         1 LIG       0.165800
      8 C8          -5.2540     1.5250    -2.2350 c3         1 LIG      -0.088400
      9 C9          -5.0220     2.0290    -0.8290 c3         1 LIG      -0.087400
     10 H10        -10.1030     2.1180    -0.9280 h1         1 LIG       0.028367
     11 H11         -9.4360     2.7370     0.6300 h1         1 LIG       0.028367
     12 H12         -9.7950     0.9680     0.4180 h1         1 LIG       0.028367
     13 H13         -7.7670     2.5540    -1.0670 hn         1 LIG       0.360800
     14 H14         -7.5440     0.5550     1.1380 h1         1 LIG       0.033200
     15 H15         -7.0400     2.2670     1.1410 h1         1 LIG       0.033200
     16 H16         -5.1340     0.8410     0.9640 h1         1 LIG       0.063700
     17 H17         -7.2890    -1.3750    -0.0100 h1         1 LIG       0.035033
     18 H18         -6.5760    -2.0500    -1.4920 h1         1 LIG       0.035033
     19 H19         -7.5530    -0.5530    -1.6170 h1         1 LIG       0.035033
     20 H20         -5.2690    -0.5700    -2.9130 h1         1 LIG       0.039200
     21 H21         -3.8610    -0.0800    -1.9170 h1         1 LIG       0.039200
     22 H22         -6.3190     1.6400    -2.5220 hc         1 LIG       0.044700
     23 H23         -4.6230     2.0150    -3.0060 hc         1 LIG       0.044700
     24 H24         -5.3290     3.0750    -0.6190 hc         1 LIG       0.047200
     25 H25         -3.9230     1.9600    -0.6490 hc         1 LIG       0.047200
@<TRIPOS>BOND
     1     1     2 1   
     2     1    10 1   
     3     1    11 1   
     4     1    12 1   
     5     2     3 1   
     6     2    13 1   
     7     3     4 1   
     8     3    14 1   
     9     3    15 1   
    10     4     5 1   
    11     4     9 1   
    12     4    16 1   
    13     5     6 1   
    14     5     7 1   
    15     6    17 1   
    16     6    18 1   
    17     6    19 1   
    18     7     8 1   
    19     7    20 1   
    20     7    21 1   
    21     8     9 1   
    22     8    22 1   
    23     8    23 1   
    24     9    24 1   
    25     9    25 1   
@<TRIPOS>SUBSTRUCTURE
     1 LIG         1 TEMP              0 ****  ****    0 ROOT
