@<TRIPOS>MOLECULE
LIG
   23    23     1     0     0
SMALL
bcc


@<TRIPOS>ATOM
      1 C1          -7.9680     0.8310     3.6440 c3         1 LIG       0.116700
      2 O2          -7.0350    -0.1860     3.3580 os         1 LIG      -0.421600
      3 C3          -5.7630     0.3880     3.1420 c3         1 LIG       0.154600
      4 C4          -4.7280    -0.6960     3.1960 c2         1 LIG      -0.150200
      5 C5          -3.3870    -0.5480     3.0820 ce         1 LIG      -0.121200
      6 C6          -2.5610     0.6910     2.8670 ca         1 LIG      -0.055800
      7 C7          -1.1590     0.5340     2.9050 ca         1 LIG      -0.122000
      8 C8          -0.3080     1.6270     2.7220 ca         1 LIG      -0.130500
      9 C9          -0.8360     2.8940     2.4920 ca         1 LIG      -0.128000
     10 C10         -2.2180     3.0730     2.4450 ca         1 LIG      -0.130500
     11 C11         -3.0790     1.9860     2.6310 ca         1 LIG      -0.122000
     12 H12         -8.9790     0.3760     3.6850 h1         1 LIG       0.032700
     13 H13         -7.9930     1.6050     2.8450 h1         1 LIG       0.032700
     14 H14         -7.7690     1.2820     4.6410 h1         1 LIG       0.032700
     15 H15         -5.5150     1.1130     3.9520 h1         1 LIG       0.039700
     16 H16         -5.7460     0.8500     2.1300 h1         1 LIG       0.039700
     17 H17         -5.0930    -1.7060     3.3650 ha         1 LIG       0.143000
     18 H18         -2.8200    -1.4710     3.1760 ha         1 LIG       0.129000
     19 H19         -0.7220    -0.4410     3.0830 ha         1 LIG       0.132000
     20 H20          0.7650     1.4870     2.7590 ha         1 LIG       0.131500
     21 H21         -0.1750     3.7390     2.3490 ha         1 LIG       0.131000
     22 H22         -2.6260     4.0590     2.2630 ha         1 LIG       0.131500
     23 H23         -4.1260     2.1910     2.5800 ha         1 LIG       0.132000
@<TRIPOS>BOND
     1     1     2 1   
     2     1    12 1   
     3     1    13 1   
     4     1    14 1   
     5     2     3 1   
     6     3     4 1   
     7     3    15 1   
     8     3    16 1   
     9     4     5 2   
    10     4    17 1   
    11     5     6 1   
    12     5    18 1   
    13     6     7 ar  
    14     6    11 ar  
    15     7     8 ar  
    16     7    19 1   
    17     8     9 ar  
    18     8    20 1   
    19     9    10 ar  
    20     9    21 1   
    21    10    11 ar  
    22    10    22 1   
    23    11    23 1   
@<TRIPOS>SUBSTRUCTURE
     1 LIG         1 TEMP              0 ****  ****    0 ROOT
