@<TRIPOS>MOLECULE
LIG
   24    23     1     0     0
SMALL
bcc


@<TRIPOS>ATOM
      1 C1          -5.7440     3.5850     3.5770 c3         1 LIG      -0.094100
      2 C2          -4.3340     3.0590     3.2380 c3         1 LIG      -0.075400
      3 C3          -3.9480     1.7510     3.9840 c3         1 LIG      -0.068700
      4 C4          -4.8410     0.5570     3.5530 c3         1 LIG       0.131400
      5 O5          -6.1090     0.6220     4.2440 os         1 LIG      -0.423600
      6 C6          -7.0310    -0.4350     3.9020 c3         1 LIG       0.115700
      7 C7          -2.4500     1.4430     3.7150 c3         1 LIG      -0.075400
      8 C8          -1.8660     0.3790     4.6690 c3         1 LIG      -0.094100
      9 H9          -5.8890     4.5750     3.1390 hc         1 LIG       0.035533
     10 H10         -5.8780     3.6660     4.6580 hc         1 LIG       0.035533
     11 H11         -6.5170     2.9280     3.1740 hc         1 LIG       0.035533
     12 H12         -3.6200     3.8430     3.5030 hc         1 LIG       0.038200
     13 H13         -4.2550     2.9100     2.1580 hc         1 LIG       0.038200
     14 H14         -4.0710     1.9180     5.0580 hc         1 LIG       0.072700
     15 H15         -4.3710    -0.3910     3.8200 h1         1 LIG       0.026700
     16 H16         -5.0070     0.5790     2.4720 h1         1 LIG       0.026700
     17 H17         -7.9530    -0.2960     4.4730 h1         1 LIG       0.031033
     18 H18         -6.5880    -1.4020     4.1520 h1         1 LIG       0.031033
     19 H19         -7.2550    -0.3920     2.8320 h1         1 LIG       0.031033
     20 H20         -1.8640     2.3560     3.8460 hc         1 LIG       0.038200
     21 H21         -2.3140     1.1230     2.6790 hc         1 LIG       0.038200
     22 H22         -2.0140     0.6710     5.7110 hc         1 LIG       0.035533
     23 H23         -0.7930     0.2730     4.4960 hc         1 LIG       0.035533
     24 H24         -2.3260    -0.5980     4.5120 hc         1 LIG       0.035533
@<TRIPOS>BOND
     1     1     2 1   
     2     1     9 1   
     3     1    10 1   
     4     1    11 1   
     5     2     3 1   
     6     2    12 1   
     7     2    13 1   
     8     3     4 1   
     9     3     7 1   
    10     3    14 1   
    11     4     5 1   
    12     4    15 1   
    13     4    16 1   
    14     5     6 1   
    15     6    17 1   
    16     6    18 1   
    17     6    19 1   
    18     7     8 1   
    19     7    20 1   
    20     7    21 1   
    21     8    22 1   
    22     8    23 1   
    23     8    24 1   
@<TRIPOS>SUBSTRUCTURE
     1 LIG         1 TEMP              0 ****  ****    0 ROOT
