@<TRIPOS>MOLECULE
LIG
   16    16     1     0     0
SMALL
bcc


@<TRIPOS>ATOM
      1 C1          -8.7560     0.3950     1.1660 c3         1 LIG       0.116700
      2 O1          -7.3990     0.2670     0.8060 os         1 LIG      -0.413600
      3 C2          -6.7110     1.4510     1.1470 c3         1 LIG       0.100100
      4 C3          -5.2430     1.2450     0.9530 cc         1 LIG       0.234000
      5 C4          -4.2620     2.1880     1.1800 cd         1 LIG      -0.228300
      6 C5          -3.0690     1.5700     0.8780 cd         1 LIG      -0.265300
      7 C6          -3.3890     0.2870     0.4830 cc         1 LIG       0.237600
      8 O2          -4.6930     0.1260     0.5390 os         1 LIG      -0.370800
      9 H1          -9.3050    -0.4880     0.7800 h1         1 LIG       0.036367
     10 H2          -9.2240     1.2920     0.7010 h1         1 LIG       0.036367
     11 H3          -8.8730     0.4020     2.2720 h1         1 LIG       0.036367
     12 H4          -6.8680     1.7160     2.2180 h1         1 LIG       0.047700
     13 H5          -7.0320     2.2870     0.4860 h1         1 LIG       0.047700
     14 H6          -4.4000     3.2040     1.5260 ha         1 LIG       0.171000
     15 H7          -2.0800     2.0040     0.9380 ha         1 LIG       0.161000
     16 H8          -2.6900    -0.4790     0.1740 h4         1 LIG       0.052100
@<TRIPOS>BOND
     1     1     2 1   
     2     1     9 1   
     3     1    10 1   
     4     1    11 1   
     5     2     3 1   
     6     3     4 1   
     7     3    12 1   
     8     3    13 1   
     9     4     5 2   
    10     4     8 1   
    11     5     6 1   
    12     5    14 1   
    13     6     7 2   
    14     6    15 1   
    15     7     8 1   
    16     7    16 1   
@<TRIPOS>SUBSTRUCTURE
     1 LIG         1 TEMP              0 ****  ****    0 ROOT
