@<TRIPOS>MOLECULE
LIG
   24    24     1     0     0
SMALL
bcc


@<TRIPOS>ATOM
      1 O1          -3.6210     2.0920    -4.2480 o          1 LIG      -0.840800
      2 C2          -4.0580     2.7490    -5.2890 c          1 LIG       0.918600
      3 C3          -4.9420     3.9310    -4.9370 c3         1 LIG      -0.177100
      4 C4          -6.4410     3.6370    -4.9510 ca         1 LIG      -0.007300
      5 C5          -6.9600     2.3470    -5.1140 ca         1 LIG      -0.143000
      6 C6          -8.3360     2.1330    -5.1040 ca         1 LIG      -0.123500
      7 C7          -9.2220     3.1950    -4.9260 ca         1 LIG      -0.134300
      8 C8         -10.7190     2.9040    -4.9140 c3         1 LIG       0.185700
      9 O9         -11.4920     4.1040    -4.6770 os         1 LIG      -0.416600
     10 C10        -12.9210     3.8980    -4.6440 c3         1 LIG       0.119700
     11 C11         -8.7070     4.4850    -4.7630 ca         1 LIG      -0.123500
     12 C12         -7.3300     4.7000    -4.7760 ca         1 LIG      -0.143000
     13 O13         -3.8600     2.3660    -6.4240 o          1 LIG      -0.840800
     14 H15         -4.7280     4.7360    -5.6440 hc         1 LIG       0.038200
     15 H16         -4.6660     4.3060    -3.9480 hc         1 LIG       0.038200
     16 H17         -6.3030     1.4910    -5.2480 ha         1 LIG       0.154000
     17 H18         -8.7200     1.1230    -5.2320 ha         1 LIG       0.116000
     18 H19        -10.9480     2.1830    -4.1240 h1         1 LIG       0.021200
     19 H20        -11.0220     2.4800    -5.8760 h1         1 LIG       0.021200
     20 H21        -13.4120     4.8580    -4.4640 h1         1 LIG       0.022700
     21 H22        -13.1720     3.2040    -3.8360 h1         1 LIG       0.022700
     22 H23        -13.2550     3.4910    -5.6020 h1         1 LIG       0.022700
     23 H24         -9.3690     5.3350    -4.6220 ha         1 LIG       0.116000
     24 H25         -6.9490     5.7100    -4.6420 ha         1 LIG       0.154000
@<TRIPOS>BOND
     1     1     2 1   
     2     2     3 1   
     3     2    13 1   
     4     3     4 1   
     5     3    14 1   
     6     3    15 1   
     7     4     5 ar  
     8     4    12 ar  
     9     5     6 ar  
    10     5    16 1   
    11     6     7 ar  
    12     6    17 1   
    13     7     8 1   
    14     7    11 ar  
    15     8     9 1   
    16     8    18 1   
    17     8    19 1   
    18     9    10 1   
    19    10    20 1   
    20    10    21 1   
    21    10    22 1   
    22    11    12 ar  
    23    11    23 1   
    24    12    24 1   
@<TRIPOS>SUBSTRUCTURE
     1 LIG         1 TEMP              0 ****  ****    0 ROOT
