@<TRIPOS>MOLECULE
LIG
   25    26     1     0     0
SMALL
bcc


@<TRIPOS>ATOM
      1 O1          -5.7160    -0.2810     2.2000 o          1 LIG      -0.546100
      2 C2          -5.0190     0.5630     1.6580 c          1 LIG       0.595900
      3 C3          -5.6100     1.6980     1.0730 cc         1 LIG      -0.280400
      4 C4          -7.1200     1.8660     1.1210 c3         1 LIG       0.210000
      5 N5          -7.5830     3.0860     0.4450 n3         1 LIG      -0.832200
      6 C6          -9.0270     3.2540     0.6100 c3         1 LIG       0.150100
      7 C7          -4.7660     2.6470     0.4620 cd         1 LIG       0.102100
      8 O8          -3.4480     2.4710     0.4370 os         1 LIG      -0.219200
      9 C9          -2.8560     1.4110     0.9770 ca         1 LIG       0.162100
     10 C10         -1.4630     1.2880     0.9130 ca         1 LIG      -0.201000
     11 C11         -0.8290     0.1770     1.4770 ca         1 LIG       0.179900
     12 F12          0.5210     0.0630     1.4110 f          1 LIG      -0.128900
     13 C13         -1.5830    -0.8160     2.1070 ca         1 LIG      -0.201000
     14 C14         -2.9750    -0.7050     2.1780 ca         1 LIG      -0.023000
     15 C15         -3.6230     0.4100     1.6120 ca         1 LIG      -0.232600
     16 H16         -7.4220     1.8970     2.1910 h1         1 LIG       0.055200
     17 H17         -7.5920     0.9780     0.6420 h1         1 LIG       0.055200
     18 H18         -7.3880     2.9980    -0.5810 hn         1 LIG       0.359800
     19 H19         -9.2830     3.3650     1.6860 h1         1 LIG       0.032700
     20 H20         -9.5780     2.3890     0.1810 h1         1 LIG       0.032700
     21 H21         -9.3520     4.1760     0.0830 h1         1 LIG       0.032700
     22 H22         -5.1710     3.5380     0.0050 h4         1 LIG       0.199000
     23 H23         -0.8730     2.0550     0.4260 ha         1 LIG       0.172000
     24 H24         -1.0890    -1.6750     2.5430 ha         1 LIG       0.158000
     25 H25         -3.5420    -1.4850     2.6700 ha         1 LIG       0.167000
@<TRIPOS>BOND
     1     1     2 2   
     2     2     3 1   
     3     2    15 1   
     4     3     4 1   
     5     3     7 2   
     6     4     5 1   
     7     4    16 1   
     8     4    17 1   
     9     5     6 1   
    10     5    18 1   
    11     6    19 1   
    12     6    20 1   
    13     6    21 1   
    14     7     8 1   
    15     7    22 1   
    16     8     9 1   
    17     9    10 ar  
    18     9    15 ar  
    19    10    11 ar  
    20    10    23 1   
    21    11    12 1   
    22    11    13 ar  
    23    13    14 ar  
    24    13    24 1   
    25    14    15 ar  
    26    14    25 1   
@<TRIPOS>SUBSTRUCTURE
     1 LIG         1 TEMP              0 ****  ****    0 ROOT
