@<TRIPOS>MOLECULE
LIG
   25    26     1     0     0
SMALL
bcc


@<TRIPOS>ATOM
      1 O1          -6.3410    -0.8320    -0.4920 o          1 LIG      -0.549100
      2 C2          -5.7780     0.2170    -0.2200 c          1 LIG       0.593900
      3 C3          -6.5320     1.3820     0.0100 cc         1 LIG      -0.285400
      4 C4          -8.0480     1.3240    -0.0740 c3         1 LIG       0.211000
      5 N5          -8.6900     2.6140     0.2070 n3         1 LIG      -0.832200
      6 C6         -10.1460     2.4710     0.2510 c3         1 LIG       0.150100
      7 C7          -5.8400     2.5700     0.3220 cd         1 LIG       0.103100
      8 O8          -4.5120     2.5870     0.3950 os         1 LIG      -0.222200
      9 C9          -3.7690     1.5050     0.1860 ca         1 LIG       0.135100
     10 C10         -2.3750     1.5910     0.2840 ca         1 LIG      -0.157000
     11 C11         -1.5850     0.4580     0.0700 ca         1 LIG      -0.078000
     12 C12         -2.1820    -0.7660    -0.2430 ca         1 LIG      -0.165000
     13 C13         -3.5720    -0.8650    -0.3450 ca         1 LIG      -0.047000
     14 C14         -4.3780     0.2710    -0.1320 ca         1 LIG      -0.214600
     15 H15         -8.3920     0.5720     0.6710 h1         1 LIG       0.054200
     16 H16         -8.3390     0.9760    -1.0910 h1         1 LIG       0.054200
     17 H17         -8.4570     3.2850    -0.5620 hn         1 LIG       0.359800
     18 H18        -10.4420     1.7600     1.0510 h1         1 LIG       0.032033
     19 H19        -10.5380     2.1160    -0.7280 h1         1 LIG       0.032033
     20 H20        -10.6060     3.4540     0.4800 h1         1 LIG       0.032033
     21 H21         -6.3730     3.4900     0.5120 h4         1 LIG       0.196000
     22 H22         -1.9060     2.5360     0.5270 ha         1 LIG       0.155000
     23 H23         -0.5080     0.5290     0.1490 ha         1 LIG       0.140000
     24 H24         -1.5650    -1.6400    -0.4060 ha         1 LIG       0.142000
     25 H25         -4.0160    -1.8220    -0.5890 ha         1 LIG       0.161000
@<TRIPOS>BOND
     1     1     2 2   
     2     2     3 1   
     3     2    14 1   
     4     3     4 1   
     5     3     7 2   
     6     4     5 1   
     7     4    15 1   
     8     4    16 1   
     9     5     6 1   
    10     5    17 1   
    11     6    18 1   
    12     6    19 1   
    13     6    20 1   
    14     7     8 1   
    15     7    21 1   
    16     8     9 1   
    17     9    10 ar  
    18     9    14 ar  
    19    10    11 ar  
    20    10    22 1   
    21    11    12 ar  
    22    11    23 1   
    23    12    13 ar  
    24    12    24 1   
    25    13    14 ar  
    26    13    25 1   
@<TRIPOS>SUBSTRUCTURE
     1 LIG         1 TEMP              0 ****  ****    0 ROOT
