@<TRIPOS>MOLECULE
LIG
   28    29     1     0     0
SMALL
bcc


@<TRIPOS>ATOM
      1 C1          -7.9990     1.7330    -0.0800 c3         1 LIG      -0.052800
      2 C2          -6.4990     1.7520    -0.0340 ca         1 LIG      -0.109300
      3 C3          -5.7990     2.9690    -0.0370 ca         1 LIG      -0.081000
      4 C4          -4.4020     2.9780     0.0010 ca         1 LIG      -0.152000
      5 C5          -3.6900     1.7760     0.0410 ca         1 LIG       0.130100
      6 O6          -2.3610     1.7990     0.0700 os         1 LIG      -0.222200
      7 C7          -1.6250     0.6930     0.1020 cc         1 LIG       0.103100
      8 C8          -2.2320    -0.5790     0.1120 cd         1 LIG      -0.286400
      9 C9          -1.4240    -1.8650     0.1380 c3         1 LIG       0.211000
     10 N10          0.0260    -1.6330     0.1480 n3         1 LIG      -0.832200
     11 C11          0.7540    -2.8970     0.0310 c3         1 LIG       0.150100
     12 C12         -3.6370    -0.6430     0.0850 c          1 LIG       0.593900
     13 O13         -4.2010    -1.7270     0.0910 o          1 LIG      -0.549100
     14 C14         -4.3830     0.5470     0.0470 ca         1 LIG      -0.210600
     15 C15         -5.7900     0.5430     0.0100 ca         1 LIG      -0.050000
     16 H16         -8.4210     2.7600    -0.1160 hc         1 LIG       0.047367
     17 H17         -8.3950     1.2210     0.8220 hc         1 LIG       0.047367
     18 H18         -8.3360     1.1850    -0.9850 hc         1 LIG       0.047367
     19 H19         -6.3350     3.9090    -0.0710 ha         1 LIG       0.140000
     20 H20         -3.8720     3.9230    -0.0040 ha         1 LIG       0.155000
     21 H21         -0.5490     0.7950     0.1170 h4         1 LIG       0.195000
     22 H22         -1.6970    -2.4470    -0.7700 h1         1 LIG       0.054200
     23 H23         -1.7130    -2.4540     1.0380 h1         1 LIG       0.054200
     24 H24          0.2940    -1.1920     1.0590 hn         1 LIG       0.359800
     25 H25          0.5010    -3.4030    -0.9250 h1         1 LIG       0.031700
     26 H26          0.5160    -3.5710     0.8830 h1         1 LIG       0.031700
     27 H27          1.8460    -2.6950     0.0330 h1         1 LIG       0.031700
     28 H28         -6.3360    -0.3940     0.0120 ha         1 LIG       0.161000
@<TRIPOS>BOND
     1     1     2 1   
     2     1    16 1   
     3     1    17 1   
     4     1    18 1   
     5     2     3 ar  
     6     2    15 ar  
     7     3     4 ar  
     8     3    19 1   
     9     4     5 ar  
    10     4    20 1   
    11     5     6 1   
    12     5    14 ar  
    13     6     7 1   
    14     7     8 2   
    15     7    21 1   
    16     8     9 1   
    17     8    12 1   
    18     9    10 1   
    19     9    22 1   
    20     9    23 1   
    21    10    11 1   
    22    10    24 1   
    23    11    25 1   
    24    11    26 1   
    25    11    27 1   
    26    12    13 2   
    27    12    14 1   
    28    14    15 ar  
    29    15    28 1   
@<TRIPOS>SUBSTRUCTURE
     1 LIG         1 TEMP              0 ****  ****    0 ROOT
