@<TRIPOS>MOLECULE
LIG
   27    28     1     0     0
SMALL
bcc


@<TRIPOS>ATOM
      1 C1          -7.6750     2.2710    -0.0150 c3         1 LIG      -0.052800
      2 C2          -6.1750     2.2830     0.0220 ca         1 LIG      -0.109300
      3 C3          -5.4710     3.4970     0.0340 ca         1 LIG      -0.081000
      4 C4          -4.0740     3.5010     0.0680 ca         1 LIG      -0.152000
      5 C5          -3.3660     2.2950     0.0890 ca         1 LIG       0.131100
      6 O6          -2.0370     2.3140     0.1200 os         1 LIG      -0.220200
      7 C7          -1.3050     1.2040     0.1410 cc         1 LIG       0.109100
      8 C8          -1.9160    -0.0640     0.1300 cd         1 LIG      -0.287400
      9 C9          -1.1020    -1.3410     0.1510 c3         1 LIG       0.190600
     10 O10          0.2850    -1.0710     0.1800 os         1 LIG      -0.438600
     11 C11          0.9990    -2.2850     0.1420 c3         1 LIG       0.120700
     12 C12         -3.3200    -0.1250     0.0990 c          1 LIG       0.595900
     13 O13         -3.8870    -1.2070     0.0890 o          1 LIG      -0.551100
     14 C14         -4.0630     1.0680     0.0780 ca         1 LIG      -0.209600
     15 C15         -5.4700     1.0700     0.0440 ca         1 LIG      -0.050000
     16 H16         -8.0930     3.3000    -0.0300 hc         1 LIG       0.047367
     17 H17         -8.0660     1.7470     0.8830 hc         1 LIG       0.047367
     18 H18         -8.0220     1.7390    -0.9260 hc         1 LIG       0.047367
     19 H19         -6.0030     4.4400     0.0170 ha         1 LIG       0.140000
     20 H20         -3.5400     4.4430     0.0770 ha         1 LIG       0.155000
     21 H21         -0.2280     1.2980     0.1650 h4         1 LIG       0.199000
     22 H22         -1.3650    -1.9140    -0.7690 h1         1 LIG       0.050700
     23 H23         -1.3980    -1.9130     1.0600 h1         1 LIG       0.050700
     24 H24          2.0830    -2.0530     0.1890 h1         1 LIG       0.035367
     25 H25          0.8240    -2.8270    -0.8140 h1         1 LIG       0.035367
     26 H26          0.7650    -2.9230     1.0230 h1         1 LIG       0.035367
     27 H27         -6.0200     0.1360     0.0340 ha         1 LIG       0.161000
@<TRIPOS>BOND
     1     1     2 1   
     2     1    16 1   
     3     1    17 1   
     4     1    18 1   
     5     2     3 ar  
     6     2    15 ar  
     7     3     4 ar  
     8     3    19 1   
     9     4     5 ar  
    10     4    20 1   
    11     5     6 1   
    12     5    14 ar  
    13     6     7 1   
    14     7     8 2   
    15     7    21 1   
    16     8     9 1   
    17     8    12 1   
    18     9    10 1   
    19     9    22 1   
    20     9    23 1   
    21    10    11 1   
    22    11    24 1   
    23    11    25 1   
    24    11    26 1   
    25    12    13 2   
    26    12    14 1   
    27    14    15 ar  
    28    15    27 1   
@<TRIPOS>SUBSTRUCTURE
     1 LIG         1 TEMP              0 ****  ****    0 ROOT
