@<TRIPOS>MOLECULE
LIG
   25    25     1     0     0
SMALL
bcc


@<TRIPOS>ATOM
      1 C1          -5.4070     1.0760    -0.0660 c3         1 LIG       0.116700
      2 O2          -3.9980     1.1310    -0.0650 os         1 LIG      -0.421600
      3 C3          -3.5120     0.6070     1.1510 c3         1 LIG       0.127400
      4 C4          -1.9840     0.6010     1.1090 c3         1 LIG      -0.080400
      5 C5          -1.3910     0.0270     2.4040 c3         1 LIG      -0.036100
      6 C6           0.1170    -0.0040     2.3550 ca         1 LIG      -0.078300
      7 C7           0.8520     1.1910     2.2550 ca         1 LIG      -0.126500
      8 C8           2.2490     1.1570     2.2110 ca         1 LIG      -0.128000
      9 C9           2.9230    -0.0660     2.2670 ca         1 LIG      -0.132000
     10 C10          2.2010    -1.2570     2.3690 ca         1 LIG      -0.128000
     11 C11          0.8030    -1.2300     2.4150 ca         1 LIG      -0.126500
     12 H12         -5.7710     1.5070    -1.0210 h1         1 LIG       0.032367
     13 H13         -5.8380     1.6920     0.7540 h1         1 LIG       0.032367
     14 H14         -5.7700     0.0260    -0.0240 h1         1 LIG       0.032367
     15 H15         -3.8570    -0.4440     1.2940 h1         1 LIG       0.024700
     16 H16         -3.8380     1.2420     2.0070 h1         1 LIG       0.024700
     17 H17         -1.6500    -0.0200     0.2480 hc         1 LIG       0.059700
     18 H18         -1.6280     1.6430     0.9540 hc         1 LIG       0.059700
     19 H19         -1.7890    -1.0030     2.5430 hc         1 LIG       0.047200
     20 H20         -1.7120     0.6380     3.2760 hc         1 LIG       0.047200
     21 H21          0.3430     2.1460     2.2150 ha         1 LIG       0.131000
     22 H22          2.8100     2.0800     2.1340 ha         1 LIG       0.130500
     23 H23          4.0040    -0.0900     2.2320 ha         1 LIG       0.130000
     24 H24          2.7240    -2.2040     2.4130 ha         1 LIG       0.130500
     25 H25          0.2580    -2.1620     2.4940 ha         1 LIG       0.131000
@<TRIPOS>BOND
     1     1     2 1   
     2     1    12 1   
     3     1    13 1   
     4     1    14 1   
     5     2     3 1   
     6     3     4 1   
     7     3    15 1   
     8     3    16 1   
     9     4     5 1   
    10     4    17 1   
    11     4    18 1   
    12     5     6 1   
    13     5    19 1   
    14     5    20 1   
    15     6     7 ar  
    16     6    11 ar  
    17     7     8 ar  
    18     7    21 1   
    19     8     9 ar  
    20     8    22 1   
    21     9    10 ar  
    22     9    23 1   
    23    10    11 ar  
    24    10    24 1   
    25    11    25 1   
@<TRIPOS>SUBSTRUCTURE
     1 LIG         1 TEMP              0 ****  ****    0 ROOT
