@<TRIPOS>MOLECULE
LIG
   26    26     1     0     0
SMALL
bcc


@<TRIPOS>ATOM
      1 C1           0.7880     0.0670    -0.1850 c3         1 LIG       0.153100
      2 N2           2.2450     0.1180    -0.3020 n3         1 LIG      -0.826200
      3 C3           2.7990    -1.2290    -0.4790 c3         1 LIG       0.160800
      4 C4           4.3220    -1.1570    -0.6280 c3         1 LIG      -0.081400
      5 C5           4.9270    -2.5560    -0.8030 c3         1 LIG      -0.036100
      6 C6           6.4310    -2.4960    -0.9230 ca         1 LIG      -0.078300
      7 C7           7.2440    -3.1110     0.0460 ca         1 LIG      -0.127500
      8 C8           8.6370    -3.0550    -0.0650 ca         1 LIG      -0.128500
      9 C9           9.2280    -2.3910    -1.1430 ca         1 LIG      -0.132000
     10 C10          8.4280    -1.7820    -2.1130 ca         1 LIG      -0.128500
     11 C11          7.0340    -1.8330    -2.0060 ca         1 LIG      -0.127500
     12 H12          0.3940     1.0970    -0.0480 h1         1 LIG       0.028700
     13 H13          0.4820    -0.5460     0.6910 h1         1 LIG       0.028700
     14 H14          0.3390    -0.3530    -1.1110 h1         1 LIG       0.028700
     15 H15          2.6280     0.5310     0.5800 hn         1 LIG       0.357800
     16 H16          2.3710    -1.6930    -1.3960 h1         1 LIG       0.027700
     17 H17          2.5440    -1.8640     0.4000 h1         1 LIG       0.027700
     18 H18          4.7550    -0.6870     0.2830 hc         1 LIG       0.050700
     19 H19          4.5660    -0.5210    -1.5070 hc         1 LIG       0.050700
     20 H20          4.5110    -3.0440    -1.7110 hc         1 LIG       0.048200
     21 H21          4.6400    -3.1720     0.0780 hc         1 LIG       0.048200
     22 H22          6.8000    -3.6290     0.8870 ha         1 LIG       0.131500
     23 H23          9.2580    -3.5270     0.6850 ha         1 LIG       0.130500
     24 H24         10.3060    -2.3500    -1.2270 ha         1 LIG       0.130000
     25 H25          8.8870    -1.2700    -2.9480 ha         1 LIG       0.130500
     26 H26          6.4260    -1.3600    -2.7670 ha         1 LIG       0.131500
@<TRIPOS>BOND
     1     1     2 1   
     2     1    12 1   
     3     1    13 1   
     4     1    14 1   
     5     2     3 1   
     6     2    15 1   
     7     3     4 1   
     8     3    16 1   
     9     3    17 1   
    10     4     5 1   
    11     4    18 1   
    12     4    19 1   
    13     5     6 1   
    14     5    20 1   
    15     5    21 1   
    16     6     7 ar  
    17     6    11 ar  
    18     7     8 ar  
    19     7    22 1   
    20     8     9 ar  
    21     8    23 1   
    22     9    10 ar  
    23     9    24 1   
    24    10    11 ar  
    25    10    25 1   
    26    11    26 1   
@<TRIPOS>SUBSTRUCTURE
     1 LIG         1 TEMP              0 ****  ****    0 ROOT
