@<TRIPOS>MOLECULE
LIG
   24    25     1     0     0
SMALL
bcc


@<TRIPOS>ATOM
      1 O1          -5.6030    -1.2590     1.0650 o          1 LIG      -0.550100
      2 C2          -5.6180    -0.0460     0.9210 c          1 LIG       0.594900
      3 C3          -4.4210     0.6500     0.6750 cc         1 LIG      -0.286400
      4 C4          -3.1110    -0.1050     0.5830 c3         1 LIG       0.190600
      5 O5          -2.0300     0.7670     0.3180 os         1 LIG      -0.438600
      6 C6          -0.8520     0.0120     0.1450 c3         1 LIG       0.120700
      7 C7          -4.4840     2.0480     0.5160 cd         1 LIG       0.109100
      8 O8          -5.6450     2.6910     0.5950 os         1 LIG      -0.220200
      9 C9          -6.7960     2.0670     0.8230 ca         1 LIG       0.136100
     10 C10         -7.9830     2.8050     0.8900 ca         1 LIG      -0.157000
     11 C11         -9.2000     2.1580     1.1270 ca         1 LIG      -0.078000
     12 C12         -9.2370     0.7720     1.2990 ca         1 LIG      -0.165000
     13 C13         -8.0570     0.0230     1.2360 ca         1 LIG      -0.047000
     14 C14         -6.8270     0.6650     0.9970 ca         1 LIG      -0.214600
     15 H15         -3.2200    -0.8480    -0.2410 h1         1 LIG       0.050700
     16 H16         -2.9510    -0.6260     1.5540 h1         1 LIG       0.050700
     17 H17         -0.0160     0.7130    -0.0560 h1         1 LIG       0.035367
     18 H18         -0.9290    -0.6610    -0.7380 h1         1 LIG       0.035367
     19 H19         -0.5920    -0.5510     1.0680 h1         1 LIG       0.035367
     20 H20         -3.5880     2.6230     0.3260 h4         1 LIG       0.200000
     21 H21         -7.9630     3.8790     0.7570 ha         1 LIG       0.155000
     22 H22        -10.1160     2.7330     1.1760 ha         1 LIG       0.140000
     23 H23        -10.1810     0.2760     1.4820 ha         1 LIG       0.142000
     24 H24         -8.1070    -1.0500     1.3720 ha         1 LIG       0.161000
@<TRIPOS>BOND
     1     1     2 2   
     2     2     3 1   
     3     2    14 1   
     4     3     4 1   
     5     3     7 2   
     6     4     5 1   
     7     4    15 1   
     8     4    16 1   
     9     5     6 1   
    10     6    17 1   
    11     6    18 1   
    12     6    19 1   
    13     7     8 1   
    14     7    20 1   
    15     8     9 1   
    16     9    10 ar  
    17     9    14 ar  
    18    10    11 ar  
    19    10    21 1   
    20    11    12 ar  
    21    11    22 1   
    22    12    13 ar  
    23    12    23 1   
    24    13    14 ar  
    25    13    24 1   
@<TRIPOS>SUBSTRUCTURE
     1 LIG         1 TEMP              0 ****  ****    0 ROOT
