@<TRIPOS>MOLECULE
LIG
   22    22     1     0     0
SMALL
bcc


@<TRIPOS>ATOM
      1 C1          -4.3210    -1.9720    -1.1350 c3         1 LIG       0.117700
      2 O2          -5.6610    -1.5360    -1.1360 os         1 LIG      -0.425600
      3 C3          -5.7060    -0.1650    -0.8020 c3         1 LIG       0.131400
      4 C4          -7.1700     0.2720    -0.7090 c3         1 LIG      -0.041100
      5 C5          -7.2950     1.7290    -0.3340 ca         1 LIG      -0.081300
      6 C6          -6.7970     2.7310    -1.1870 ca         1 LIG      -0.126500
      7 C7          -6.9170     4.0790    -0.8360 ca         1 LIG      -0.128500
      8 C8          -7.5340     4.4380     0.3660 ca         1 LIG      -0.131000
      9 C9          -8.0340     3.4500     1.2170 ca         1 LIG      -0.128500
     10 C10         -7.9180     2.1000     0.8710 ca         1 LIG      -0.126500
     11 H11         -4.3020    -3.0410    -1.4270 h1         1 LIG       0.032367
     12 H12         -3.8750    -1.9030    -0.1180 h1         1 LIG       0.032367
     13 H13         -3.7120    -1.4190    -1.8860 h1         1 LIG       0.032367
     14 H14         -5.2340     0.0150     0.1920 h1         1 LIG       0.029700
     15 H15         -5.1950     0.4370    -1.5870 h1         1 LIG       0.029700
     16 H16         -7.6700    -0.3650     0.0530 hc         1 LIG       0.062700
     17 H17         -7.6790     0.1020    -1.6820 hc         1 LIG       0.062700
     18 H18         -6.3210     2.4680    -2.1230 ha         1 LIG       0.132000
     19 H19         -6.5330     4.8460    -1.4960 ha         1 LIG       0.131000
     20 H20         -7.6260     5.4820     0.6360 ha         1 LIG       0.131000
     21 H21         -8.5130     3.7300     2.1470 ha         1 LIG       0.131000
     22 H22         -8.3100     1.3460     1.5410 ha         1 LIG       0.132000
@<TRIPOS>BOND
     1     1     2 1   
     2     1    11 1   
     3     1    12 1   
     4     1    13 1   
     5     2     3 1   
     6     3     4 1   
     7     3    14 1   
     8     3    15 1   
     9     4     5 1   
    10     4    16 1   
    11     4    17 1   
    12     5     6 ar  
    13     5    10 ar  
    14     6     7 ar  
    15     6    18 1   
    16     7     8 ar  
    17     7    19 1   
    18     8     9 ar  
    19     8    20 1   
    20     9    10 ar  
    21     9    21 1   
    22    10    22 1   
@<TRIPOS>SUBSTRUCTURE
     1 LIG         1 TEMP              0 ****  ****    0 ROOT
