@<TRIPOS>MOLECULE
LIG
   23    23     1     0     0
SMALL
bcc


@<TRIPOS>ATOM
      1 C1           0.9230    -0.1630     0.1200 c3         1 LIG       0.153100
      2 N2           2.3780    -0.0130     0.0670 n3         1 LIG      -0.827200
      3 C3           2.7570     1.4030     0.1250 c3         1 LIG       0.163800
      4 C4           4.2860     1.5390     0.1170 c3         1 LIG      -0.041100
      5 C5           4.8230     2.9570     0.1830 ca         1 LIG      -0.079300
      6 C6           3.9870     4.0940     0.2460 ca         1 LIG      -0.126500
      7 C7           4.5430     5.3760     0.3040 ca         1 LIG      -0.128500
      8 C8           5.9300     5.5410     0.3000 ca         1 LIG      -0.132000
      9 C9           6.7650     4.4250     0.2380 ca         1 LIG      -0.128500
     10 C10          6.2170     3.1410     0.1800 ca         1 LIG      -0.126500
     11 H11          0.6620    -1.2410     0.0730 h1         1 LIG       0.029367
     12 H12          0.4410     0.3540    -0.7390 h1         1 LIG       0.029367
     13 H13          0.5260     0.2470     1.0730 h1         1 LIG       0.029367
     14 H14          2.7150    -0.4210    -0.8370 hn         1 LIG       0.355800
     15 H15          2.3630     1.8510     1.0650 h1         1 LIG       0.033200
     16 H16          2.3320     1.9420    -0.7520 h1         1 LIG       0.033200
     17 H17          4.6740     1.0690    -0.8120 hc         1 LIG       0.053700
     18 H18          4.6880     0.9760     0.9890 hc         1 LIG       0.053700
     19 H19          2.9100     4.0030     0.2510 ha         1 LIG       0.132000
     20 H20          3.8970     6.2430     0.3520 ha         1 LIG       0.130500
     21 H21          6.3560     6.5350     0.3440 ha         1 LIG       0.131000
     22 H22          7.8400     4.5540     0.2340 ha         1 LIG       0.130500
     23 H23          6.8780     2.2840     0.1320 ha         1 LIG       0.132000
@<TRIPOS>BOND
     1     1     2 1   
     2     1    11 1   
     3     1    12 1   
     4     1    13 1   
     5     2     3 1   
     6     2    14 1   
     7     3     4 1   
     8     3    15 1   
     9     3    16 1   
    10     4     5 1   
    11     4    17 1   
    12     4    18 1   
    13     5     6 ar  
    14     5    10 ar  
    15     6     7 ar  
    16     6    19 1   
    17     7     8 ar  
    18     7    20 1   
    19     8     9 ar  
    20     8    21 1   
    21     9    10 ar  
    22     9    22 1   
    23    10    23 1   
@<TRIPOS>SUBSTRUCTURE
     1 LIG         1 TEMP              0 ****  ****    0 ROOT
