@<TRIPOS>MOLECULE
LIG
   20    20     1     0     0
SMALL
bcc


@<TRIPOS>ATOM
      1 C1          -9.1180     2.5000    -0.0980 c3         1 LIG       0.151100
      2 N2          -7.6650     2.5380    -0.2690 n3         1 LIG      -0.823200
      3 C3          -7.0190     1.4990     0.5430 c3         1 LIG       0.206100
      4 C4          -5.5280     1.4910     0.3090 ca         1 LIG      -0.086300
      5 C5          -4.7490     2.6130     0.6450 ca         1 LIG      -0.121500
      6 C6          -3.3680     2.6010     0.4310 ca         1 LIG      -0.129500
      7 C7          -2.7530     1.4720    -0.1180 ca         1 LIG      -0.128000
      8 C8          -3.5190     0.3520    -0.4520 ca         1 LIG      -0.129500
      9 C9          -4.9010     0.3580    -0.2390 ca         1 LIG      -0.121500
     10 H10         -9.5820     3.2910    -0.7250 h1         1 LIG       0.029367
     11 H11         -9.3960     2.6820     0.9630 h1         1 LIG       0.029367
     12 H12         -9.5220     1.5190    -0.4280 h1         1 LIG       0.029367
     13 H13         -7.3310     3.4810     0.0360 hn         1 LIG       0.361800
     14 H14         -7.4450     0.5070     0.2710 h1         1 LIG       0.037200
     15 H15         -7.2150     1.6710     1.6250 h1         1 LIG       0.037200
     16 H16         -5.2100     3.4930     1.0750 ha         1 LIG       0.131500
     17 H17         -2.7730     3.4670     0.6910 ha         1 LIG       0.131500
     18 H18         -1.6830     1.4650    -0.2830 ha         1 LIG       0.131000
     19 H19         -3.0410    -0.5220    -0.8760 ha         1 LIG       0.131500
     20 H20         -5.4800    -0.5180    -0.5030 ha         1 LIG       0.131500
@<TRIPOS>BOND
     1     1     2 1   
     2     1    10 1   
     3     1    11 1   
     4     1    12 1   
     5     2     3 1   
     6     2    13 1   
     7     3     4 1   
     8     3    14 1   
     9     3    15 1   
    10     4     5 ar  
    11     4     9 ar  
    12     5     6 ar  
    13     5    16 1   
    14     6     7 ar  
    15     6    17 1   
    16     7     8 ar  
    17     7    18 1   
    18     8     9 ar  
    19     8    19 1   
    20     9    20 1   
@<TRIPOS>SUBSTRUCTURE
     1 LIG         1 TEMP              0 ****  ****    0 ROOT
