@<TRIPOS>MOLECULE
LIG
   19    19     1     0     0
SMALL
bcc


@<TRIPOS>ATOM
      1 C1          -8.5300     1.4220    -0.0830 c3         1 LIG       0.116700
      2 O2          -7.1230     1.3520    -0.0530 os         1 LIG      -0.420600
      3 C3          -6.6680     0.6070    -1.1620 c3         1 LIG       0.172700
      4 C4          -5.1660     0.6780    -1.2140 ca         1 LIG      -0.087300
      5 C5          -4.5280     1.9210    -1.3580 ca         1 LIG      -0.116500
      6 C6          -3.1330     1.9950    -1.4090 ca         1 LIG      -0.132000
      7 C7          -2.3660     0.8300    -1.3170 ca         1 LIG      -0.130000
      8 C8          -2.9940    -0.4110    -1.1750 ca         1 LIG      -0.132000
      9 C9          -4.3890    -0.4900    -1.1240 ca         1 LIG      -0.116500
     10 H10         -8.8720     1.9570     0.8270 h1         1 LIG       0.033700
     11 H11         -8.9910     0.4090    -0.0540 h1         1 LIG       0.033700
     12 H12         -8.8840     2.0070    -0.9600 h1         1 LIG       0.033700
     13 H13         -7.0520     1.0310    -2.1190 h1         1 LIG       0.036200
     14 H14         -6.9950    -0.4540    -1.0680 h1         1 LIG       0.036200
     15 H15         -5.1140     2.8300    -1.4300 ha         1 LIG       0.139500
     16 H16         -2.6460     2.9550    -1.5190 ha         1 LIG       0.130500
     17 H17         -1.2860     0.8890    -1.3570 ha         1 LIG       0.130000
     18 H18         -2.3980    -1.3120    -1.1050 ha         1 LIG       0.130500
     19 H19         -4.8620    -1.4580    -1.0140 ha         1 LIG       0.139500
@<TRIPOS>BOND
     1     1     2 1   
     2     1    10 1   
     3     1    11 1   
     4     1    12 1   
     5     2     3 1   
     6     3     4 1   
     7     3    13 1   
     8     3    14 1   
     9     4     5 ar  
    10     4     9 ar  
    11     5     6 ar  
    12     5    15 1   
    13     6     7 ar  
    14     6    16 1   
    15     7     8 ar  
    16     7    17 1   
    17     8     9 ar  
    18     8    18 1   
    19     9    19 1   
@<TRIPOS>SUBSTRUCTURE
     1 LIG         1 TEMP              0 ****  ****    0 ROOT
