@<TRIPOS>MOLECULE
LIG
   24    24     1     0     0
SMALL
bcc


@<TRIPOS>ATOM
      1 C1          -8.5220     0.8890     1.4360 c3         1 LIG       0.152100
      2 N2          -7.1460     0.6130     1.0220 n3         1 LIG      -0.824200
      3 C3          -6.1990     1.4180     1.8000 c3         1 LIG       0.191000
      4 C4          -4.7860     1.0890     1.4030 c2         1 LIG      -0.162200
      5 C5          -3.7530     1.7150     1.9960 ce         1 LIG      -0.116200
      6 C6          -2.3170     1.4660     1.6790 ca         1 LIG      -0.054800
      7 C7          -1.3430     2.2020     2.3800 ca         1 LIG      -0.119500
      8 C8           0.0170     2.0090     2.1230 ca         1 LIG      -0.130500
      9 C9           0.4240     1.0800     1.1650 ca         1 LIG      -0.127000
     10 C10         -0.5290     0.3420     0.4610 ca         1 LIG      -0.130500
     11 C11         -1.8920     0.5280     0.7110 ca         1 LIG      -0.119500
     12 H12         -9.2190     0.2700     0.8320 h1         1 LIG       0.030033
     13 H13         -8.7750     1.9610     1.2800 h1         1 LIG       0.030033
     14 H14         -8.6650     0.6230     2.5050 h1         1 LIG       0.030033
     15 H15         -7.0540     0.8630     0.0090 hn         1 LIG       0.359800
     16 H16         -6.3190     1.1980     2.8840 h1         1 LIG       0.036200
     17 H17         -6.3840     2.5020     1.6240 h1         1 LIG       0.036200
     18 H18         -4.6280     0.3430     0.6350 ha         1 LIG       0.138000
     19 H19         -3.9790     2.4560     2.7600 ha         1 LIG       0.124000
     20 H20         -1.6400     2.9280     3.1280 ha         1 LIG       0.132500
     21 H21          0.7560     2.5810     2.6680 ha         1 LIG       0.131500
     22 H22          1.4780     0.9320     0.9670 ha         1 LIG       0.131000
     23 H23         -0.2100    -0.3790    -0.2820 ha         1 LIG       0.131500
     24 H24         -2.5950    -0.0620     0.1460 ha         1 LIG       0.132500
@<TRIPOS>BOND
     1     1     2 1   
     2     1    12 1   
     3     1    13 1   
     4     1    14 1   
     5     2     3 1   
     6     2    15 1   
     7     3     4 1   
     8     3    16 1   
     9     3    17 1   
    10     4     5 2   
    11     4    18 1   
    12     5     6 1   
    13     5    19 1   
    14     6     7 ar  
    15     6    11 ar  
    16     7     8 ar  
    17     7    20 1   
    18     8     9 ar  
    19     8    21 1   
    20     9    10 ar  
    21     9    22 1   
    22    10    11 ar  
    23    10    23 1   
    24    11    24 1   
@<TRIPOS>SUBSTRUCTURE
     1 LIG         1 TEMP              0 ****  ****    0 ROOT
