@<TRIPOS>MOLECULE
LIG
   23    23     1     0     0
SMALL
bcc


@<TRIPOS>ATOM
      1 C1          -8.9660     2.3660     1.9920 c3         1 LIG       0.116700
      2 O2          -7.7040     2.7070     1.4640 os         1 LIG      -0.420600
      3 C3          -6.7820     1.6820     1.7620 c3         1 LIG       0.156600
      4 C4          -5.4430     2.0420     1.1850 c2         1 LIG      -0.153200
      5 C5          -4.3930     1.2150     1.3400 ce         1 LIG      -0.121200
      6 C6          -3.0240     1.4770     0.8070 ca         1 LIG      -0.052800
      7 C7          -2.0220     0.5200     1.0490 ca         1 LIG      -0.119500
      8 C8          -0.7220     0.7140     0.5730 ca         1 LIG      -0.130500
      9 C9          -0.4050     1.8650    -0.1500 ca         1 LIG      -0.128000
     10 C10         -1.3880     2.8240    -0.3980 ca         1 LIG      -0.130500
     11 C11         -2.6910     2.6380     0.0740 ca         1 LIG      -0.119500
     12 H12         -9.6750     3.1870     1.7590 h1         1 LIG       0.033367
     13 H13         -8.9300     2.2730     3.1000 h1         1 LIG       0.033367
     14 H14         -9.3670     1.4440     1.5170 h1         1 LIG       0.033367
     15 H15         -7.1030     0.7180     1.3040 h1         1 LIG       0.037200
     16 H16         -6.6610     1.5720     2.8650 h1         1 LIG       0.037200
     17 H17         -5.3530     2.9760     0.6480 ha         1 LIG       0.147000
     18 H18         -4.5500     0.2900     1.8910 ha         1 LIG       0.122000
     19 H19         -2.2480    -0.3800     1.6080 ha         1 LIG       0.132500
     20 H20          0.0410    -0.0300     0.7660 ha         1 LIG       0.131500
     21 H21          0.6020     2.0130    -0.5170 ha         1 LIG       0.131000
     22 H22         -1.1400     3.7160    -0.9590 ha         1 LIG       0.131500
     23 H23         -3.4200     3.4030    -0.1400 ha         1 LIG       0.132500
@<TRIPOS>BOND
     1     1     2 1   
     2     1    12 1   
     3     1    13 1   
     4     1    14 1   
     5     2     3 1   
     6     3     4 1   
     7     3    15 1   
     8     3    16 1   
     9     4     5 2   
    10     4    17 1   
    11     5     6 1   
    12     5    18 1   
    13     6     7 ar  
    14     6    11 ar  
    15     7     8 ar  
    16     7    19 1   
    17     8     9 ar  
    18     8    20 1   
    19     9    10 ar  
    20     9    21 1   
    21    10    11 ar  
    22    10    22 1   
    23    11    23 1   
@<TRIPOS>SUBSTRUCTURE
     1 LIG         1 TEMP              0 ****  ****    0 ROOT
