@<TRIPOS>MOLECULE
LIG
   26    26     1     0     0
SMALL
bcc


@<TRIPOS>ATOM
      1 C1          -3.5060     1.2300     0.4070 c3         1 LIG      -0.057900
      2 C2          -4.4370     0.0800     0.7170 c2         1 LIG      -0.091400
      3 C3          -3.8620    -1.2940     1.0360 c3         1 LIG       0.159600
      4 O4          -2.4500    -1.3050     0.9950 os         1 LIG      -0.417600
      5 C5          -1.9800    -2.5930     1.3200 c3         1 LIG       0.115700
      6 C6          -5.7970     0.1910     0.7310 ce         1 LIG      -0.129200
      7 C7          -6.6990     1.3710     0.4690 ca         1 LIG      -0.049800
      8 C8          -8.0880     1.1360     0.5680 ca         1 LIG      -0.120500
      9 C9          -9.0120     2.1600     0.3450 ca         1 LIG      -0.131500
     10 C10         -8.5720     3.4400     0.0200 ca         1 LIG      -0.129000
     11 C11         -7.2070     3.6990    -0.0840 ca         1 LIG      -0.131500
     12 C12         -6.2730     2.6810     0.1370 ca         1 LIG      -0.120500
     13 H13         -2.4360     0.9510     0.4420 hc         1 LIG       0.050700
     14 H14         -3.6350     2.0320     1.1620 hc         1 LIG       0.050700
     15 H15         -3.6900     1.5940    -0.6250 hc         1 LIG       0.050700
     16 H16         -4.2680    -2.0080     0.2830 h1         1 LIG       0.034200
     17 H17         -4.2150    -1.5710     2.0570 h1         1 LIG       0.034200
     18 H18         -0.8720    -2.5840     1.2680 h1         1 LIG       0.033033
     19 H19         -2.3330    -3.3520     0.5870 h1         1 LIG       0.033033
     20 H20         -2.2550    -2.8730     2.3620 h1         1 LIG       0.033033
     21 H21         -6.3310    -0.7270     0.9720 ha         1 LIG       0.125000
     22 H22         -8.4600     0.1510     0.8190 ha         1 LIG       0.134500
     23 H23        -10.0720     1.9580     0.4260 ha         1 LIG       0.130500
     24 H24         -9.2890     4.2330    -0.1520 ha         1 LIG       0.130000
     25 H25         -6.8680     4.6950    -0.3370 ha         1 LIG       0.130500
     26 H26         -5.2460     2.9540     0.0400 ha         1 LIG       0.134500
@<TRIPOS>BOND
     1     1     2 1   
     2     1    13 1   
     3     1    14 1   
     4     1    15 1   
     5     2     3 1   
     6     2     6 2   
     7     3     4 1   
     8     3    16 1   
     9     3    17 1   
    10     4     5 1   
    11     5    18 1   
    12     5    19 1   
    13     5    20 1   
    14     6     7 1   
    15     6    21 1   
    16     7     8 ar  
    17     7    12 ar  
    18     8     9 ar  
    19     8    22 1   
    20     9    10 ar  
    21     9    23 1   
    22    10    11 ar  
    23    10    24 1   
    24    11    12 ar  
    25    11    25 1   
    26    12    26 1   
@<TRIPOS>SUBSTRUCTURE
     1 LIG         1 TEMP              0 ****  ****    0 ROOT
