@<TRIPOS>MOLECULE
LIG
   27    27     1     0     0
SMALL
bcc


@<TRIPOS>ATOM
      1 C1          -3.2450     2.5160     0.9540 c3         1 LIG      -0.058900
      2 C2          -3.5180     2.0330    -0.4540 c2         1 LIG      -0.103400
      3 C3          -2.3940     1.9960    -1.4890 c3         1 LIG       0.194000
      4 N4          -1.0900     2.4180    -0.9630 n3         1 LIG      -0.824200
      5 C5          -0.0920     2.4750    -2.0320 c3         1 LIG       0.152100
      6 C6          -4.7470     1.6250    -0.8820 ce         1 LIG      -0.126200
      7 C7          -6.0700     1.5310    -0.1640 ca         1 LIG      -0.051800
      8 C8          -7.1760     1.1070    -0.9330 ca         1 LIG      -0.120500
      9 C9          -8.4470     0.9870    -0.3680 ca         1 LIG      -0.131000
     10 C10         -8.6440     1.2820     0.9780 ca         1 LIG      -0.129000
     11 C11         -7.5710     1.7000     1.7610 ca         1 LIG      -0.131000
     12 C12         -6.2930     1.8260     1.2040 ca         1 LIG      -0.120500
     13 H13         -2.2030     2.8450     1.1200 hc         1 LIG       0.048700
     14 H14         -3.4230     1.6920     1.6740 hc         1 LIG       0.048700
     15 H15         -3.8720     3.4040     1.1710 hc         1 LIG       0.048700
     16 H16         -2.6890     2.6660    -2.3270 h1         1 LIG       0.035700
     17 H17         -2.3070     0.9570    -1.8810 h1         1 LIG       0.035700
     18 H18         -0.7640     1.7110    -0.2630 hn         1 LIG       0.360800
     19 H19         -0.3900     3.2170    -2.8020 h1         1 LIG       0.029700
     20 H20          0.0380     1.4770    -2.5050 h1         1 LIG       0.029700
     21 H21          0.8840     2.7930    -1.6080 h1         1 LIG       0.029700
     22 H22         -4.7910     1.3160    -1.9250 ha         1 LIG       0.125000
     23 H23         -7.0540     0.8710    -1.9830 ha         1 LIG       0.133500
     24 H24         -9.2810     0.6620    -0.9770 ha         1 LIG       0.131000
     25 H25         -9.6300     1.1880     1.4150 ha         1 LIG       0.131000
     26 H26         -7.7270     1.9270     2.8080 ha         1 LIG       0.131000
     27 H27         -5.5200     2.1480     1.8650 ha         1 LIG       0.133500
@<TRIPOS>BOND
     1     1     2 1   
     2     1    13 1   
     3     1    14 1   
     4     1    15 1   
     5     2     3 1   
     6     2     6 2   
     7     3     4 1   
     8     3    16 1   
     9     3    17 1   
    10     4     5 1   
    11     4    18 1   
    12     5    19 1   
    13     5    20 1   
    14     5    21 1   
    15     6     7 1   
    16     6    22 1   
    17     7     8 ar  
    18     7    12 ar  
    19     8     9 ar  
    20     8    23 1   
    21     9    10 ar  
    22     9    24 1   
    23    10    11 ar  
    24    10    25 1   
    25    11    12 ar  
    26    11    26 1   
    27    12    27 1   
@<TRIPOS>SUBSTRUCTURE
     1 LIG         1 TEMP              0 ****  ****    0 ROOT
