@<TRIPOS>MOLECULE
LIG
   19    18     1     0     0
SMALL
bcc


@<TRIPOS>ATOM
      1 O1          -7.7230    -0.0490     1.8130 oh         1 LIG      -0.607800
      2 C2          -6.3700     0.2250     2.0480 c3         1 LIG       0.098400
      3 C3          -5.9500     1.4680     1.2560 c3         1 LIG       0.137100
      4 O4          -6.7110     2.5800     1.7040 os         1 LIG      -0.423600
      5 C5          -7.5680     3.0480     0.6860 c3         1 LIG       0.113700
      6 C6          -4.4550     1.7590     1.4720 c3         1 LIG      -0.077400
      7 C7          -3.9840     2.9620     0.6550 c3         1 LIG      -0.092100
      8 H8          -7.9390    -0.8540     2.3520 ho         1 LIG       0.401000
      9 H9          -5.7560    -0.6440     1.7190 h1         1 LIG       0.033700
     10 H10         -6.2080     0.4090     3.1340 h1         1 LIG       0.033700
     11 H11         -6.0880     1.2360     0.1690 h1         1 LIG       0.059700
     12 H12         -8.1570     3.8980     1.0880 h1         1 LIG       0.037033
     13 H13         -8.2940     2.2630     0.3780 h1         1 LIG       0.037033
     14 H14         -6.9870     3.4310    -0.1810 h1         1 LIG       0.037033
     15 H15         -3.8570     0.8740     1.1630 hc         1 LIG       0.048200
     16 H16         -4.2610     1.9570     2.5490 hc         1 LIG       0.048200
     17 H17         -4.1450     2.7790    -0.4280 hc         1 LIG       0.038033
     18 H18         -2.9000     3.1280     0.8310 hc         1 LIG       0.038033
     19 H19         -4.5330     3.8790     0.9560 hc         1 LIG       0.038033
@<TRIPOS>BOND
     1     1     2 1   
     2     1     8 1   
     3     2     3 1   
     4     2     9 1   
     5     2    10 1   
     6     3     4 1   
     7     3     6 1   
     8     3    11 1   
     9     4     5 1   
    10     5    12 1   
    11     5    13 1   
    12     5    14 1   
    13     6     7 1   
    14     6    15 1   
    15     6    16 1   
    16     7    17 1   
    17     7    18 1   
    18     7    19 1   
@<TRIPOS>SUBSTRUCTURE
     1 LIG         1 TEMP              0 ****  ****    0 ROOT
