@<TRIPOS>MOLECULE
LIG
   20    19     1     0     0
SMALL
bcc


@<TRIPOS>ATOM
      1 O1          -6.0940     2.8780     0.2080 oh         1 LIG      -0.606800
      2 C2          -4.9440     2.6930    -0.5690 c3         1 LIG       0.132400
      3 C3          -4.7410     1.2020    -0.9330 c3         1 LIG       0.173500
      4 N4          -5.7810     0.7030    -1.8660 n3         1 LIG      -0.825200
      5 C5          -7.1370     0.6960    -1.3080 c3         1 LIG       0.149100
      6 C6          -3.3340     1.0620    -1.5730 c3         1 LIG      -0.088400
      7 C7          -2.9060    -0.3810    -1.8520 c3         1 LIG      -0.097100
      8 H8          -6.1780     3.8560     0.3520 ho         1 LIG       0.399000
      9 H9          -5.0010     3.2990    -1.5020 h1         1 LIG       0.030200
     10 H10         -4.0750     3.0350     0.0380 h1         1 LIG       0.030200
     11 H11         -4.7480     0.6040     0.0070 h1         1 LIG       0.040700
     12 H12         -5.5740    -0.2980    -2.0840 hn         1 LIG       0.358800
     13 H13         -7.5540     1.7220    -1.2680 h1         1 LIG       0.033700
     14 H14         -7.1580     0.2170    -0.3040 h1         1 LIG       0.033700
     15 H15         -7.8080     0.1210    -1.9820 h1         1 LIG       0.033700
     16 H16         -2.5820     1.4810    -0.8670 hc         1 LIG       0.048700
     17 H17         -3.2840     1.6470    -2.5170 hc         1 LIG       0.048700
     18 H18         -2.9360    -0.9790    -0.9170 hc         1 LIG       0.035367
     19 H19         -1.8640    -0.3840    -2.2380 hc         1 LIG       0.035367
     20 H20         -3.5420    -0.8610    -2.6220 hc         1 LIG       0.035367
@<TRIPOS>BOND
     1     1     2 1   
     2     1     8 1   
     3     2     3 1   
     4     2     9 1   
     5     2    10 1   
     6     3     4 1   
     7     3     6 1   
     8     3    11 1   
     9     4     5 1   
    10     4    12 1   
    11     5    13 1   
    12     5    14 1   
    13     5    15 1   
    14     6     7 1   
    15     6    16 1   
    16     6    17 1   
    17     7    18 1   
    18     7    19 1   
    19     7    20 1   
@<TRIPOS>SUBSTRUCTURE
     1 LIG         1 TEMP              0 ****  ****    0 ROOT
