@<TRIPOS>MOLECULE
GAL
   81    84     1     0     0
SMALL
bcc


@<TRIPOS>ATOM
      1 C1         38.3990   -0.6130   23.0120 c3      268 GAL      0.347900
      2 C2         39.5370   -0.1600   22.0740 c3      268 GAL      0.086100
      3 C3         39.9370   -1.2230   21.0270 c3      268 GAL      0.073100
      4 C4         39.9960   -2.6460   21.6010 c3      268 GAL      0.073100
      5 C5         38.7160   -2.9080   22.3720 c3      268 GAL      0.079100
      6 C6         38.6800   -4.3130   22.9350 c3      268 GAL      0.143400
      7 O7         38.2830    0.2500   24.1570 oh      268 GAL     -0.601800
      8 O8         39.1310    1.0290   21.3780 oh      268 GAL     -0.593800
      9 O9         41.1950   -0.8830   20.4290 oh      268 GAL     -0.608800
     10 O10        41.1100   -2.8480   22.4840 oh      268 GAL     -0.605800
     11 O11        38.6200   -1.9640   23.4510 os      268 GAL     -0.473600
     12 O12        37.3980   -4.4130   23.5480 os      268 GAL     -0.407600
     13 H13        37.4390   -0.5780   22.4450 h2      268 GAL      0.059700
     14 H14        40.4320    0.0810   22.6940 h1      268 GAL      0.050700
     15 H15        39.1650   -1.2140   20.2220 h1      268 GAL      0.103700
     16 H16        40.0660   -3.3730   20.7590 h1      268 GAL      0.157700
     17 H17        37.8460   -2.7680   21.6890 h1      268 GAL      0.110700
     18 H18        39.5310   -4.5550   23.6140 h1      268 GAL      0.073700
     19 H19        38.8910   -5.1110   22.1850 h1      268 GAL      0.073700
     20 H20        37.5820   -0.0290   24.7350 ho      268 GAL      0.420000
     21 H21        39.8320    1.3080   20.8000 ho      268 GAL      0.413000
     22 H22        41.4410   -1.5370   19.7850 ho      268 GAL      0.417000
     23 H23        41.1470   -3.7280   22.8390 ho      268 GAL      0.403000
     24 C24        36.2720   -5.3090   21.5890 c       269 SIA      0.888600
     25 C25        36.5300   -5.4420   23.0840 c3      269 SIA      0.217600
     26 C26        35.2050   -5.2870   23.8360 c3      269 SIA     -0.118400
     27 C27        34.3580   -6.5300   23.6620 c3      269 SIA      0.113100
     28 C28        35.1640   -7.7150   24.1570 c3      269 SIA      0.154500
     29 C29        36.4390   -7.8520   23.3210 c3      269 SIA      0.119100
     30 C30        37.4030   -8.9740   23.6990 c3      269 SIA      0.128100
     31 C31        38.7620   -8.8460   22.9850 c3      269 SIA      0.087100
     32 C32        39.5740  -10.1410   23.0160 c3      269 SIA      0.136400
     33 N33        34.2620   -8.8180   23.8790 n3      269 SIA     -0.785200
     34 O34        35.6210   -4.3300   21.1570 o       269 SIA     -0.816800
     35 O35        36.7240   -6.1790   20.8170 o       269 SIA     -0.816800
     36 O36        33.1130   -6.4330   24.3650 oh      269 SIA     -0.619800
     37 O37        37.1950   -6.6610   23.4300 os      269 SIA     -0.461600
     38 O38        37.5580   -8.9620   25.1100 oh      269 SIA     -0.614800
     39 O39        38.5660   -8.5170   21.6000 oh      269 SIA     -0.635800
     40 O40        40.8620   -9.9660   22.3880 oh      269 SIA     -0.618800
     41 H41        34.6580   -4.3640   23.5320 hc      269 SIA      0.066200
     42 H42        35.3630   -5.0370   24.9110 hc      269 SIA      0.066200
     43 H43        34.1460   -6.6700   22.5760 h1      269 SIA      0.062700
     44 H44        35.3920   -7.6330   25.2450 h1      269 SIA      0.070700
     45 H45        36.1460   -7.9860   22.2530 h1      269 SIA      0.093700
     46 H46        36.9430   -9.9460   23.4050 h1      269 SIA      0.093700
     47 H47        39.3530   -8.0350   23.4710 h1      269 SIA      0.054700
     48 H48        39.0090  -10.9890   22.5630 h1      269 SIA      0.045200
     49 H49        39.6750  -10.5370   24.0540 h1      269 SIA      0.045200
     50 H50        33.5460   -8.7070   23.1610 hn      269 SIA      0.371800
     51 H51        32.5820   -7.2130   24.2560 ho      269 SIA      0.400000
     52 H52        38.1580   -9.6600   25.3450 ho      269 SIA      0.413000
     53 H53        39.4040   -8.4380   21.1600 ho      269 SIA      0.465000
     54 H54        41.3670  -10.7710   22.4070 ho      269 SIA      0.417000
     55 C55        32.0940  -12.1360   31.2570 ca        1 UNK     -0.128500
     56 C56        31.1600  -11.8280   32.2290 ca        1 UNK     -0.130000
     57 C57        30.8040  -10.5110   32.4540 ca        1 UNK     -0.139000
     58 C58        31.3790   -9.5020   31.7030 ca        1 UNK     -0.130000
     59 C59        32.3170   -9.8100   30.7360 ca        1 UNK     -0.128500
     60 C60        32.6730  -11.1270   30.5120 ca        1 UNK     -0.069300
     61 C61        33.6930  -11.4620   29.4530 c3        1 UNK     -0.040100
     62 C62        33.6270  -10.4220   28.3320 c3        1 UNK     -0.074400
     63 C63        34.0300  -11.0740   27.0080 c3        1 UNK     -0.043400
     64 C64        34.6790  -10.0270   26.1010 cx        1 UNK     -0.173700
     65 C65        35.7390  -10.5110   25.1100 cx        1 UNK     -0.129400
     66 C66        34.3570  -10.0890   24.6060 cx        1 UNK      0.145500
     67 H67        32.3720  -13.1640   31.0820 ha        1 UNK      0.132500
     68 H68        30.7080  -12.6170   32.8120 ha        1 UNK      0.126000
     69 H69        30.0740  -10.2710   33.2110 ha        1 UNK      0.125000
     70 H70        31.0980   -8.4750   31.8750 ha        1 UNK      0.126000
     71 H71        32.7710   -9.0210   30.1520 ha        1 UNK      0.132500
     72 H72        34.6890  -11.4580   29.8940 hc        1 UNK      0.045200
     73 H73        33.4810  -12.4500   29.0440 hc        1 UNK      0.045200
     74 H74        32.6100  -10.0370   28.2540 hc        1 UNK      0.047200
     75 H75        34.3090   -9.6030   28.5560 hc        1 UNK      0.047200
     76 H76        34.7390  -11.8790   27.2000 hc        1 UNK      0.034200
     77 H77        33.1440  -11.4800   26.5180 hc        1 UNK      0.034200
     78 H78        34.8190   -9.0420   26.5460 hc        1 UNK      0.099700
     79 H79        36.5760   -9.8440   24.9010 hc        1 UNK      0.078200
     80 H80        35.9740  -11.5760   25.1040 hc        1 UNK      0.078200
     81 H81        33.6820  -10.8760   24.2700 h1        1 UNK      0.072700
@<TRIPOS>BOND
     1    1    2 1   
     2    1    7 1   
     3    1   11 1   
     4    1   13 1   
     5    2    3 1   
     6    2    8 1   
     7    2   14 1   
     8    3    4 1   
     9    3    9 1   
    10    3   15 1   
    11    4    5 1   
    12    4   10 1   
    13    4   16 1   
    14    5    6 1   
    15    5   11 1   
    16    5   17 1   
    17    6   12 1   
    18    6   18 1   
    19    6   19 1   
    20    7   20 1   
    21    8   21 1   
    22    9   22 1   
    23   10   23 1   
    24   12   25 1   
    25   24   25 1   
    26   24   34 1   
    27   24   35 1   
    28   25   26 1   
    29   25   37 1   
    30   26   27 1   
    31   26   41 1   
    32   26   42 1   
    33   27   28 1   
    34   27   36 1   
    35   27   43 1   
    36   28   29 1   
    37   28   33 1   
    38   28   44 1   
    39   29   30 1   
    40   29   37 1   
    41   29   45 1   
    42   30   31 1   
    43   30   38 1   
    44   30   46 1   
    45   31   32 1   
    46   31   39 1   
    47   31   47 1   
    48   32   40 1   
    49   32   48 1   
    50   32   49 1   
    51   33   50 1   
    52   33   66 1   
    53   36   51 1   
    54   38   52 1   
    55   39   53 1   
    56   40   54 1   
    57   55   56 ar  
    58   55   60 ar  
    59   55   67 1   
    60   56   57 ar  
    61   56   68 1   
    62   57   58 ar  
    63   57   69 1   
    64   58   59 ar  
    65   58   70 1   
    66   59   60 ar  
    67   59   71 1   
    68   60   61 1   
    69   61   62 1   
    70   61   72 1   
    71   61   73 1   
    72   62   63 1   
    73   62   74 1   
    74   62   75 1   
    75   63   64 1   
    76   63   76 1   
    77   63   77 1   
    78   64   65 1   
    79   64   66 1   
    80   64   78 1   
    81   65   66 1   
    82   65   79 1   
    83   65   80 1   
    84   66   81 1   
@<TRIPOS>SUBSTRUCTURE
     1 GAL         1 TEMP              0 ****  ****    0 ROOT
