@<TRIPOS>MOLECULE
GAL
   82    85     1     0     0
SMALL
bcc


@<TRIPOS>ATOM
      1 C1         38.3990   -0.6130   23.0120 c3      268 GAL      0.347900
      2 C2         39.5370   -0.1600   22.0740 c3      268 GAL      0.086100
      3 C3         39.9370   -1.2230   21.0270 c3      268 GAL      0.073100
      4 C4         39.9960   -2.6460   21.6010 c3      268 GAL      0.072100
      5 C5         38.7160   -2.9080   22.3720 c3      268 GAL      0.078100
      6 C6         38.6800   -4.3130   22.9350 c3      268 GAL      0.145400
      7 O7         38.2830    0.2500   24.1570 oh      268 GAL     -0.602800
      8 O8         39.1310    1.0290   21.3780 oh      268 GAL     -0.594800
      9 O9         41.1950   -0.8830   20.4290 oh      268 GAL     -0.609800
     10 O10        41.1100   -2.8480   22.4840 oh      268 GAL     -0.605800
     11 O11        38.6200   -1.9640   23.4510 os      268 GAL     -0.473600
     12 O12        37.3980   -4.4130   23.5480 os      268 GAL     -0.404600
     13 H13        37.4390   -0.5780   22.4450 h2      268 GAL      0.060700
     14 H14        40.4320    0.0810   22.6940 h1      268 GAL      0.049700
     15 H15        39.1650   -1.2140   20.2220 h1      268 GAL      0.103700
     16 H16        40.0660   -3.3730   20.7590 h1      268 GAL      0.158700
     17 H17        37.8460   -2.7680   21.6890 h1      268 GAL      0.112700
     18 H18        39.5310   -4.5550   23.6140 h1      268 GAL      0.072200
     19 H19        38.8910   -5.1110   22.1850 h1      268 GAL      0.072200
     20 H20        37.5820   -0.0290   24.7350 ho      268 GAL      0.420000
     21 H21        39.8320    1.3080   20.8000 ho      268 GAL      0.412000
     22 H22        41.4410   -1.5370   19.7850 ho      268 GAL      0.416000
     23 H23        41.1470   -3.7280   22.8390 ho      268 GAL      0.402000
     24 C24        36.2720   -5.3090   21.5890 c       269 SIA      0.884600
     25 C25        36.5300   -5.4420   23.0840 c3      269 SIA      0.211600
     26 C26        35.2050   -5.2870   23.8360 c3      269 SIA     -0.077400
     27 C27        34.3580   -6.5300   23.6620 c3      269 SIA      0.115100
     28 C28        35.1640   -7.7150   24.1570 c3      269 SIA      0.122500
     29 C29        36.4390   -7.8520   23.3210 c3      269 SIA      0.162100
     30 C30        37.4030   -8.9740   23.6990 c3      269 SIA      0.127100
     31 C31        38.7620   -8.8460   22.9850 c3      269 SIA      0.083100
     32 C32        39.5740  -10.1410   23.0160 c3      269 SIA      0.132400
     33 N33        34.2620   -8.8180   23.8790 n3      269 SIA     -0.811200
     34 O34        35.6210   -4.3300   21.1570 o       269 SIA     -0.818300
     35 O35        36.7240   -6.1790   20.8170 o       269 SIA     -0.818300
     36 O36        33.1130   -6.4330   24.3650 oh      269 SIA     -0.614800
     37 O37        37.1950   -6.6610   23.4300 os      269 SIA     -0.441600
     38 O38        37.5580   -8.9620   25.1100 oh      269 SIA     -0.590800
     39 O39        38.5660   -8.5170   21.6000 oh      269 SIA     -0.639800
     40 O40        40.8620   -9.9660   22.3880 oh      269 SIA     -0.616800
     41 H41        34.6580   -4.3640   23.5320 hc      269 SIA      0.071700
     42 H42        35.3630   -5.0370   24.9110 hc      269 SIA      0.071700
     43 H43        34.1460   -6.6700   22.5760 h1      269 SIA      0.050700
     44 H44        35.3920   -7.6330   25.2450 h1      269 SIA      0.088700
     45 H45        36.1460   -7.9860   22.2530 h1      269 SIA      0.084700
     46 H46        36.9430   -9.9460   23.4050 h1      269 SIA      0.049700
     47 H47        39.3530   -8.0350   23.4710 h1      269 SIA      0.070700
     48 H48        39.0090  -10.9890   22.5630 h1      269 SIA      0.031700
     49 H49        39.6750  -10.5370   24.0540 h1      269 SIA      0.031700
     50 H50        33.5460   -8.7070   23.1610 hn      269 SIA      0.366800
     51 H51        32.5820   -7.2130   24.2560 ho      269 SIA      0.406000
     52 H52        38.1580   -9.6600   25.3450 ho      269 SIA      0.383000
     53 H53        39.4040   -8.4380   21.1600 ho      269 SIA      0.474000
     54 H54        41.3670  -10.7710   22.4070 ho      269 SIA      0.426000
     55 N55        33.0580   -9.4820   28.6180 n         1 UNK     -0.563900
     56 C56        34.1860  -10.4140   28.4700 c3        1 UNK      0.081000
     57 C57        34.2270  -11.0460   27.0630 c3        1 UNK     -0.067400
     58 C58        34.8520  -10.0970   26.0330 cx        1 UNK     -0.123700
     59 C59        35.7120  -10.6640   24.9260 cx        1 UNK     -0.126400
     60 C60        34.3560  -10.0880   24.6060 cx        1 UNK      0.120500
     61 H61        35.1280   -9.8840   28.6660 h1        1 UNK      0.072700
     62 H62        34.0950  -11.2130   29.2200 h1        1 UNK      0.072700
     63 H63        34.8160  -11.9730   27.1010 hc        1 UNK      0.040700
     64 H64        33.2100  -11.3270   26.7590 hc        1 UNK      0.040700
     65 H65        35.1870   -9.1550   26.4620 hc        1 UNK      0.104700
     66 H66        36.6080  -10.1060   24.6610 hc        1 UNK      0.065700
     67 H67        35.8300  -11.7450   24.8630 hc        1 UNK      0.065700
     68 H68        33.5550  -10.7820   24.3650 h1        1 UNK      0.074700
     69 C69        32.4560   -8.8470   27.5510 c         1 UNK      0.673700
     70 H70        32.7130   -9.2660   29.5370 hn        1 UNK      0.306500
     71 O71        32.8140   -9.0660   26.4070 o         1 UNK     -0.612100
     72 C72        31.3360   -7.8850   27.8610 ca        1 UNK     -0.135600
     73 C73        30.6580   -7.2620   26.7920 ca        1 UNK     -0.093000
     74 C74        29.6140   -6.3540   27.0320 ca        1 UNK     -0.141000
     75 C75        29.2320   -6.0540   28.3480 ca        1 UNK     -0.118000
     76 C76        29.8980   -6.6650   29.4220 ca        1 UNK     -0.141000
     77 C77        30.9420   -7.5740   29.1850 ca        1 UNK     -0.093000
     78 H78        31.4380   -8.0240   30.0380 ha        1 UNK      0.147500
     79 H79        30.9470   -7.4860   25.7660 ha        1 UNK      0.147500
     80 H80        29.1040   -5.8820   26.1960 ha        1 UNK      0.132500
     81 H81        28.4250   -5.3500   28.5340 ha        1 UNK      0.128000
     82 H82        29.6040   -6.4300   30.4420 ha        1 UNK      0.132500
@<TRIPOS>BOND
     1    1    2 1   
     2    1    7 1   
     3    1   11 1   
     4    1   13 1   
     5    2    3 1   
     6    2    8 1   
     7    2   14 1   
     8    3    4 1   
     9    3    9 1   
    10    3   15 1   
    11    4    5 1   
    12    4   10 1   
    13    4   16 1   
    14    5    6 1   
    15    5   11 1   
    16    5   17 1   
    17    6   12 1   
    18    6   18 1   
    19    6   19 1   
    20    7   20 1   
    21    8   21 1   
    22    9   22 1   
    23   10   23 1   
    24   12   25 1   
    25   24   25 1   
    26   24   34 1   
    27   24   35 1   
    28   25   26 1   
    29   25   37 1   
    30   26   27 1   
    31   26   41 1   
    32   26   42 1   
    33   27   28 1   
    34   27   36 1   
    35   27   43 1   
    36   28   29 1   
    37   28   33 1   
    38   28   44 1   
    39   29   30 1   
    40   29   37 1   
    41   29   45 1   
    42   30   31 1   
    43   30   38 1   
    44   30   46 1   
    45   31   32 1   
    46   31   39 1   
    47   31   47 1   
    48   32   40 1   
    49   32   48 1   
    50   32   49 1   
    51   33   50 1   
    52   33   60 1   
    53   36   51 1   
    54   38   52 1   
    55   39   53 1   
    56   40   54 1   
    57   55   56 1   
    58   55   69 1   
    59   55   70 1   
    60   56   57 1   
    61   56   61 1   
    62   56   62 1   
    63   57   58 1   
    64   57   63 1   
    65   57   64 1   
    66   58   59 1   
    67   58   60 1   
    68   58   65 1   
    69   59   60 1   
    70   59   66 1   
    71   59   67 1   
    72   60   68 1   
    73   69   71 2   
    74   69   72 1   
    75   72   73 ar  
    76   72   77 ar  
    77   73   74 ar  
    78   73   79 1   
    79   74   75 ar  
    80   74   80 1   
    81   75   76 ar  
    82   75   81 1   
    83   76   77 ar  
    84   76   82 1   
    85   77   78 1   
@<TRIPOS>SUBSTRUCTURE
     1 GAL         1 TEMP              0 ****  ****    0 ROOT
