MODEL 0
REMARK  0 active torsions:
REMARK  status: ('A' for Active; 'I' for Inactive)
REMARK       I    between atoms: C2_2  and  C3_3 
REMARK       I    between atoms: C2_2  and  C7_9 
REMARK       I    between atoms: C3_3  and  C4_4 
REMARK       I    between atoms: C4_4  and  C5_5 
REMARK       I    between atoms: C5_5  and  N1_6 
REMARK       I    between atoms: N1_6  and  C6_7 
REMARK FAKE_HEAD_ATOM=C6_N1
REMARK REAL_HEAD_ATOM=C3_C2
REMARK DUMMY_ATOM=H8_H9_H10_C6_N1_H7_C5_O1_C4_H5_H6
ROOT
HETATM    1  C1  LIG     1      -7.521   3.000   1.325  1.00  0.00    -0.119 C 
HETATM    2  C2  LIG     1      -7.122   1.739   1.455  1.00  0.00    -0.093 C 
HETATM    3  C3  LIG     1      -5.693   1.350   1.806  1.00  0.00    -0.038 C 
HETATM    4  C4  LIG     1      -4.627   2.034   0.917  1.00  0.00     0.013 C 
HETATM    5  C5  LIG     1      -3.218   1.743   1.412  1.00  0.00     0.217 C 
HETATM    6  N1  LIG     1      -2.610   0.584   1.069  1.00  0.00    -0.365 N 
HETATM    7  C6  LIG     1      -3.170  -0.501   0.256  1.00  0.00    -0.018 C 
HETATM    8  O1  LIG     1      -2.642   2.517   2.148  1.00  0.00    -0.274 OA
HETATM    9  C7  LIG     1      -8.091   0.581   1.313  1.00  0.00    -0.055 C 
HETATM   10  H1  LIG     1      -6.838   3.835   1.458  1.00  0.00     0.067 H 
HETATM   11  H2  LIG     1      -8.555   3.245   1.094  1.00  0.00     0.067 H 
HETATM   12  H3  LIG     1      -5.573   0.269   1.714  1.00  0.00     0.040 H 
HETATM   13  H4  LIG     1      -5.502   1.594   2.854  1.00  0.00     0.040 H 
HETATM   14  H5  LIG     1      -4.765   3.117   0.939  1.00  0.00     0.047 H 
HETATM   15  H6  LIG     1      -4.749   1.730  -0.124  1.00  0.00     0.047 H 
HETATM   16  H7  LIG     1      -1.682   0.429   1.436  1.00  0.00     0.161 HD
HETATM   17  H8  LIG     1      -3.886  -1.072   0.852  1.00  0.00     0.056 H 
HETATM   18  H9  LIG     1      -2.358  -1.163  -0.055  1.00  0.00     0.056 H 
HETATM   19  H10 LIG     1      -3.660  -0.101  -0.635  1.00  0.00     0.056 H 
HETATM   20  H11 LIG     1      -9.113   0.933   1.152  1.00  0.00     0.033 H 
HETATM   21  H12 LIG     1      -8.090  -0.033   2.217  1.00  0.00     0.033 H 
HETATM   22  H13 LIG     1      -7.816  -0.052   0.467  1.00  0.00     0.033 H 
ENDROOT
TORSDOF 5
ENDMDL
