MODEL 0
REMARK  0 active torsions:
REMARK  status: ('A' for Active; 'I' for Inactive)
REMARK       I    between atoms: C2_2  and  C3_3 
REMARK       I    between atoms: C2_2  and  C5_6 
REMARK       I    between atoms: C3_3  and  O1_4 
REMARK       I    between atoms: O1_4  and  C4_5 
REMARK FAKE_HEAD_ATOM=C4_O1
REMARK REAL_HEAD_ATOM=C3_C2
REMARK DUMMY_ATOM=H5_H6_H7_C4_O1
ROOT
HETATM    1  C1  LIG     1       0.924  -0.066  -0.094  1.00  0.00    -0.117 C 
HETATM    2  C2  LIG     1       2.253  -0.027  -0.080  1.00  0.00    -0.070 C 
HETATM    3  C3  LIG     1       3.071   1.243   0.097  1.00  0.00     0.038 C 
HETATM    4  O1  LIG     1       2.221   2.414   0.094  1.00  0.00    -0.392 OA
HETATM    5  C4  LIG     1       2.926   3.665   0.242  1.00  0.00     0.004 C 
HETATM    6  C5  LIG     1       3.088  -1.281  -0.234  1.00  0.00    -0.053 C 
HETATM    7  H1  LIG     1       0.319   0.830   0.020  1.00  0.00     0.067 H 
HETATM    8  H2  LIG     1       0.389  -1.004  -0.222  1.00  0.00     0.067 H 
HETATM    9  H3  LIG     1       3.793   1.334  -0.719  1.00  0.00     0.081 H 
HETATM   10  H4  LIG     1       3.611   1.203   1.048  1.00  0.00     0.081 H 
HETATM   11  H5  LIG     1       2.198   4.480   0.252  1.00  0.00     0.066 H 
HETATM   12  H6  LIG     1       3.612   3.798  -0.598  1.00  0.00     0.066 H 
HETATM   13  H7  LIG     1       3.483   3.662   1.183  1.00  0.00     0.066 H 
HETATM   14  H8  LIG     1       2.461  -2.169  -0.343  1.00  0.00     0.033 H 
HETATM   15  H9  LIG     1       3.727  -1.426   0.641  1.00  0.00     0.033 H 
HETATM   16  H10 LIG     1       3.729  -1.211  -1.116  1.00  0.00     0.033 H 
ENDROOT
TORSDOF 4
ENDMDL
