MODEL 0
REMARK  0 active torsions:
REMARK  status: ('A' for Active; 'I' for Inactive)
REMARK       I    between atoms: C1_1  and  O1_2 
REMARK       I    between atoms: O1_2  and  C2_3 
REMARK FAKE_HEAD_ATOM=C1_O1
REMARK REAL_HEAD_ATOM=C2_C3
REMARK DUMMY_ATOM=H1_H2_H3_C1_O1
ROOT
HETATM    1  C1  LIG     1       1.034   0.097   0.090  1.00  0.00     0.010 C 
HETATM    2  O1  LIG     1       2.477   0.008   0.056  1.00  0.00    -0.356 OA
HETATM    3  C2  LIG     1       3.167  -1.191   0.082  1.00  0.00     0.068 A 
HETATM    4  C3  LIG     1       4.559  -1.141   0.020  1.00  0.00    -0.051 A 
HETATM    5  C4  LIG     1       5.308  -2.316   0.042  1.00  0.00    -0.080 A 
HETATM    6  C5  LIG     1       4.667  -3.550   0.126  1.00  0.00    -0.083 A 
HETATM    7  C6  LIG     1       3.276  -3.607   0.188  1.00  0.00    -0.080 A 
HETATM    8  C7  LIG     1       2.525  -2.432   0.167  1.00  0.00    -0.051 A 
HETATM    9  H1  LIG     1       0.745   1.151   0.055  1.00  0.00     0.066 H 
HETATM   10  H2  LIG     1       0.662  -0.351   1.015  1.00  0.00     0.066 H 
HETATM   11  H3  LIG     1       0.615  -0.423  -0.776  1.00  0.00     0.066 H 
HETATM   12  H4  LIG     1       5.063  -0.179  -0.046  1.00  0.00     0.087 H 
HETATM   13  H5  LIG     1       6.393  -2.269  -0.007  1.00  0.00     0.083 H 
HETATM   14  H6  LIG     1       5.251  -4.467   0.143  1.00  0.00     0.083 H 
HETATM   15  H7  LIG     1       2.775  -4.569   0.254  1.00  0.00     0.083 H 
HETATM   16  H8  LIG     1       1.442  -2.501   0.217  1.00  0.00     0.087 H 
ENDROOT
TORSDOF 2
ENDMDL
