MODEL 0
REMARK  0 active torsions:
REMARK  status: ('A' for Active; 'I' for Inactive)
REMARK       I    between atoms: C1_2  and  N1_3 
REMARK       I    between atoms: C1_2  and  C3_5 
REMARK       I    between atoms: N1_3  and  C2_4 
REMARK       I    between atoms: C3_5  and  C4_6 
REMARK FAKE_HEAD_ATOM=C2_N1
REMARK DUMMY_ATOM=H2_H3_H4_C2_N1_H1_C1_O1_C3_H5_H6
ROOT
HETATM    1  O1  LIG     1      -6.041  -0.300  -1.925  1.00  0.00    -0.273 OA
HETATM    2  C1  LIG     1      -5.688  -0.384  -0.765  1.00  0.00     0.221 C 
HETATM    3  N1  LIG     1      -5.686   0.680   0.067  1.00  0.00    -0.365 N 
HETATM    4  C2  LIG     1      -6.108   2.025  -0.332  1.00  0.00    -0.018 C 
HETATM    5  C3  LIG     1      -5.147  -1.669  -0.172  1.00  0.00     0.033 C 
HETATM    6  C4  LIG     1      -3.638  -1.603   0.014  1.00  0.00    -0.050 A 
HETATM    7  C5  LIG     1      -2.799  -1.479  -1.096  1.00  0.00    -0.076 A 
HETATM    8  C6  LIG     1      -1.417  -1.410  -0.930  1.00  0.00    -0.082 A 
HETATM    9  C7  LIG     1      -0.865  -1.468   0.348  1.00  0.00    -0.083 A 
HETATM   10  C8  LIG     1      -1.696  -1.595   1.459  1.00  0.00    -0.082 A 
HETATM   11  C9  LIG     1      -3.078  -1.662   1.293  1.00  0.00    -0.076 A 
HETATM   12  H1  LIG     1      -5.339   0.562   1.007  1.00  0.00     0.161 HD
HETATM   13  H2  LIG     1      -7.168   2.009  -0.601  1.00  0.00     0.056 H 
HETATM   14  H3  LIG     1      -5.518   2.353  -1.192  1.00  0.00     0.056 H 
HETATM   15  H4  LIG     1      -5.953   2.716   0.501  1.00  0.00     0.056 H 
HETATM   16  H5  LIG     1      -5.397  -2.504  -0.831  1.00  0.00     0.054 H 
HETATM   17  H6  LIG     1      -5.641  -1.860   0.784  1.00  0.00     0.054 H 
HETATM   18  H7  LIG     1      -3.223  -1.430  -2.097  1.00  0.00     0.084 H 
HETATM   19  H8  LIG     1      -0.770  -1.309  -1.798  1.00  0.00     0.083 H 
HETATM   20  H9  LIG     1       0.213  -1.413   0.478  1.00  0.00     0.083 H 
HETATM   21  H10 LIG     1      -1.265  -1.641   2.457  1.00  0.00     0.083 H 
HETATM   22  H11 LIG     1      -3.717  -1.759   2.168  1.00  0.00     0.084 H 
ENDROOT
TORSDOF 3
ENDMDL
