#       Name:                _i003
#       Creating user name   gordoncs
#       Creation time:       Thu Apr 21 15:52:59 2022


#       File generated by GOLD software.
#

@<TRIPOS>MOLECULE
_i003|molecule.003|mol2|1|dock1811
    30    31     1
SMALL
NO_CHARGES


@<TRIPOS>ATOM
      1 C1          33.7970 -11.6632  29.5724 C.ar           1 <1>                0.0000
      2 C2          33.2011 -12.6875  30.2841 C.ar           1 <1>                0.0000
      3 C3          32.2497 -12.3995  31.2446 C.ar           1 <1>                0.0000
      4 C4          31.8902 -11.0874  31.4897 C.ar           1 <1>                0.0000
      5 C5          32.4902 -10.0626  30.7820 C.ar           1 <1>                0.0000
      6 C6          33.4417 -10.3507  29.8215 C.ar           1 <1>                0.0000
      7 C7          34.0921  -9.2339  29.0463 C.3            1 <1>                0.0000
      8 C8          33.0109  -8.3452  28.4281 C.3            1 <1>                0.0000
      9 C9          32.3717  -9.0700  27.2420 C.3            1 <1>                0.0000
     10 C10         33.4562  -9.4499  26.2319 C.3            1 <1>                0.0000
     11 C11         33.1830 -10.6467  25.3187 C.3            1 <1>                0.0000
     12 C12         33.1503  -9.2270  24.7494 C.3            1 <1>                0.0000
     13 N13         34.2626  -8.8184  23.8812 N.4            1 <1>                0.0000
     14 H14         34.5404 -11.8883  28.8219 H              1 <1>                0.0000
     15 H15         33.4786 -13.7129  30.0894 H              1 <1>                0.0000
     16 H16         31.7839 -13.1998  31.8004 H              1 <1>                0.0000
     17 H17         31.1437 -10.8625  32.2371 H              1 <1>                0.0000
     18 H18         32.2129  -9.0372  30.9769 H              1 <1>                0.0000
     19 H19         34.7118  -8.6389  29.7172 H              1 <1>                0.0000
     20 H20         34.7130  -9.6544  28.2552 H              1 <1>                0.0000
     21 H21         32.2478  -8.1281  29.1755 H              1 <1>                0.0000
     22 H22         33.4594  -7.4127  28.0853 H              1 <1>                0.0000
     23 H23         31.8712  -9.9720  27.5942 H              1 <1>                0.0000
     24 H24         31.6442  -8.4137  26.7643 H              1 <1>                0.0000
     25 H25         34.4828  -9.2938  26.5632 H              1 <1>                0.0000
     26 H26         34.0300 -11.2777  25.0490 H              1 <1>                0.0000
     27 H27         32.2308 -11.1637  25.4378 H              1 <1>                0.0000
     28 H28         32.1763  -8.8097  24.4938 H              1 <1>                0.0000
     29 H29         33.9939  -8.8522  22.9093 H              1 <1>                0.0000
     30 H30         34.5987  -7.9007  24.1318 H              1 <1>                0.0000
@<TRIPOS>BOND
    1    1    6 ar    
    2    1    2 ar    
    3    1   14 1     
    4    2    3 ar    
    5    2   15 1     
    6    3    4 ar    
    7    3   16 1     
    8    4    5 ar    
    9    4   17 1     
   10    5    6 ar    
   11    5   18 1     
   12    6    7 1     
   13    7    8 1     
   14    7   19 1     
   15    7   20 1     
   16    8    9 1     
   17    8   21 1     
   18    8   22 1     
   19    9   10 1     
   20    9   23 1     
   21    9   24 1     
   22   10   12 1     
   23   10   11 1     
   24   10   25 1     
   25   11   12 1     
   26   11   26 1     
   27   11   27 1     
   28   12   13 1     
   29   12   28 1     
   30   13   29 1     
   31   13   30 1     
@<TRIPOS>SUBSTRUCTURE
      1 ****           1
@<TRIPOS>COMMENT
> <Gold.Version>
2021.3.0

> <Gold.Id.Protein>
4BGX|4BGX_protein_noAcetyl_SiaGal|mol2

> <Gold.Protein.ActiveResidues>

> <Gold.Score>
     Score     S(PLP)   S(hbond)     S(cho)   S(metal)  DE(clash)   DE(tors)    DE(cov)     intcor
     91.37    -104.68       0.00       0.00       0.00       0.00       0.55      12.79       0.58

> <Gold.PLP.Fitness>
91.3693

> <Gold.PLP.PLP>
-104.6816

> <Gold.PLP.part.hbond>
18.0000

> <Gold.PLP.part.metal>
0.0000

> <Gold.PLP.part.buried>
49.8621

> <Gold.PLP.part.nonpolar>
-26.0695

> <Gold.PLP.part.repulsive>
0.0000

> <Gold.PLP.ligand.clash>
0.0000

> <Gold.PLP.ligand.torsion>
0.5523

> <Gold.PLP.Chemscore.Hbond>
0.0000

> <Gold.PLP.Chemscore.CHOScore>
0.0000

> <Gold.PLP.Chemscore.Metal>
0.0000

> <Gold.PLP.Chemscore.Internal.Correction>
0.5826

> <Gold.PLP.Chemscore.Covalent>
12.7901

