@<TRIPOS>MOLECULE
GAL
   81    84     1     0     0
SMALL
bcc


@<TRIPOS>ATOM
      1 C1         38.3990   -0.6130   23.0120 c3      268 GAL      0.346900
      2 C2         39.5370   -0.1600   22.0740 c3      268 GAL      0.086100
      3 C3         39.9370   -1.2230   21.0270 c3      268 GAL      0.073100
      4 C4         39.9960   -2.6460   21.6010 c3      268 GAL      0.073100
      5 C5         38.7160   -2.9080   22.3720 c3      268 GAL      0.079100
      6 C6         38.6800   -4.3130   22.9350 c3      268 GAL      0.143400
      7 O7         38.2830    0.2500   24.1570 oh      268 GAL     -0.601800
      8 O8         39.1310    1.0290   21.3780 oh      268 GAL     -0.593800
      9 O9         41.1950   -0.8830   20.4290 oh      268 GAL     -0.608800
     10 O10        41.1100   -2.8480   22.4840 oh      268 GAL     -0.605800
     11 O11        38.6200   -1.9640   23.4510 os      268 GAL     -0.473600
     12 O12        37.3980   -4.4130   23.5480 os      268 GAL     -0.405600
     13 H13        37.4390   -0.5780   22.4450 h2      268 GAL      0.060700
     14 H14        40.4320    0.0810   22.6940 h1      268 GAL      0.050700
     15 H15        39.1650   -1.2140   20.2220 h1      268 GAL      0.103700
     16 H16        40.0660   -3.3730   20.7590 h1      268 GAL      0.157700
     17 H17        37.8460   -2.7680   21.6890 h1      268 GAL      0.111700
     18 H18        39.5310   -4.5550   23.6140 h1      268 GAL      0.073200
     19 H19        38.8910   -5.1110   22.1850 h1      268 GAL      0.073200
     20 H20        37.5820   -0.0290   24.7350 ho      268 GAL      0.420000
     21 H21        39.8320    1.3080   20.8000 ho      268 GAL      0.413000
     22 H22        41.4410   -1.5370   19.7850 ho      268 GAL      0.416000
     23 H23        41.1470   -3.7280   22.8390 ho      268 GAL      0.403000
     24 C24        36.2720   -5.3090   21.5890 c       269 SIA      0.887600
     25 C25        36.5300   -5.4420   23.0840 c3      269 SIA      0.213600
     26 C26        35.2050   -5.2870   23.8360 c3      269 SIA     -0.077400
     27 C27        34.3580   -6.5300   23.6620 c3      269 SIA      0.115100
     28 C28        35.1640   -7.7150   24.1570 c3      269 SIA      0.117500
     29 C29        36.4390   -7.8520   23.3210 c3      269 SIA      0.122100
     30 C30        37.4030   -8.9740   23.6990 c3      269 SIA      0.127100
     31 C31        38.7620   -8.8460   22.9850 c3      269 SIA      0.087100
     32 C32        39.5740  -10.1410   23.0160 c3      269 SIA      0.136400
     33 N33        34.2620   -8.8180   23.8790 n3      269 SIA     -0.803200
     34 O34        35.6210   -4.3300   21.1570 o       269 SIA     -0.816800
     35 O35        36.7240   -6.1790   20.8170 o       269 SIA     -0.816800
     36 O36        33.1130   -6.4330   24.3650 oh      269 SIA     -0.605800
     37 O37        37.1950   -6.6610   23.4300 os      269 SIA     -0.460600
     38 O38        37.5580   -8.9620   25.1100 oh      269 SIA     -0.614800
     39 O39        38.5660   -8.5170   21.6000 oh      269 SIA     -0.636800
     40 O40        40.8620   -9.9660   22.3880 oh      269 SIA     -0.618800
     41 H41        34.6580   -4.3640   23.5320 hc      269 SIA      0.072700
     42 H42        35.3630   -5.0370   24.9110 hc      269 SIA      0.072700
     43 H43        34.1460   -6.6700   22.5760 h1      269 SIA      0.058700
     44 H44        35.3920   -7.6330   25.2450 h1      269 SIA      0.076700
     45 H45        36.1460   -7.9860   22.2530 h1      269 SIA      0.093700
     46 H46        36.9430   -9.9460   23.4050 h1      269 SIA      0.091700
     47 H47        39.3530   -8.0350   23.4710 h1      269 SIA      0.055700
     48 H48        39.0090  -10.9890   22.5630 h1      269 SIA      0.044700
     49 H49        39.6750  -10.5370   24.0540 h1      269 SIA      0.044700
     50 H50        33.5460   -8.7070   23.1610 hn      269 SIA      0.367800
     51 H51        32.5820   -7.2130   24.2560 ho      269 SIA      0.388000
     52 H52        38.1580   -9.6600   25.3450 ho      269 SIA      0.413000
     53 H53        39.4040   -8.4380   21.1600 ho      269 SIA      0.466000
     54 H54        41.3670  -10.7710   22.4070 ho      269 SIA      0.417000
     55 C55        32.8230  -11.0760   30.8510 ca        1 UNK     -0.128000
     56 C56        32.1360  -11.5130   31.9700 ca        1 UNK     -0.131000
     57 C57        30.8800  -11.0100   32.2500 ca        1 UNK     -0.140000
     58 C58        30.3060  -10.0740   31.4080 ca        1 UNK     -0.131000
     59 C59        30.9940   -9.6340   30.2940 ca        1 UNK     -0.128000
     60 C60        32.2520  -10.1360   30.0150 ca        1 UNK     -0.068300
     61 C61        33.0000   -9.6590   28.7960 c3        1 UNK     -0.043100
     62 C62        34.1200  -10.6470   28.4650 c3        1 UNK     -0.070400
     63 C63        34.0030  -11.0790   27.0020 c3        1 UNK     -0.045400
     64 C64        34.6570  -10.0260   26.1060 cx        1 UNK     -0.187700
     65 C65        35.7350  -10.5010   25.1290 cx        1 UNK     -0.123400
     66 C66        34.3570  -10.0890   24.6060 cx        1 UNK      0.143500
     67 H67        33.8040  -11.4680   30.6330 ha        1 UNK      0.133500
     68 H68        32.5830  -12.2470   32.6240 ha        1 UNK      0.126000
     69 H69        30.3440  -11.3520   33.1220 ha        1 UNK      0.124000
     70 H70        29.3230   -9.6850   31.6250 ha        1 UNK      0.126000
     71 H71        30.5490   -8.8990   29.6390 ha        1 UNK      0.133500
     72 H72        32.3130   -9.5930   27.9510 hc        1 UNK      0.055700
     73 H73        33.4290   -8.6770   28.9930 hc        1 UNK      0.055700
     74 H74        35.0860  -10.1690   28.6280 hc        1 UNK      0.041200
     75 H75        34.0350  -11.5220   29.1100 hc        1 UNK      0.041200
     76 H76        34.5060  -12.0370   26.8640 hc        1 UNK      0.034700
     77 H77        32.9510  -11.1800   26.7360 hc        1 UNK      0.034700
     78 H78        34.7830   -9.0400   26.5530 hc        1 UNK      0.100700
     79 H79        36.5690   -9.8270   24.9330 hc        1 UNK      0.079700
     80 H80        35.9780  -11.5630   25.1250 hc        1 UNK      0.079700
     81 H81        33.6930  -10.8810   24.2600 h1        1 UNK      0.073700
@<TRIPOS>BOND
     1    1    2 1   
     2    1    7 1   
     3    1   11 1   
     4    1   13 1   
     5    2    3 1   
     6    2    8 1   
     7    2   14 1   
     8    3    4 1   
     9    3    9 1   
    10    3   15 1   
    11    4    5 1   
    12    4   10 1   
    13    4   16 1   
    14    5    6 1   
    15    5   11 1   
    16    5   17 1   
    17    6   12 1   
    18    6   18 1   
    19    6   19 1   
    20    7   20 1   
    21    8   21 1   
    22    9   22 1   
    23   10   23 1   
    24   12   25 1   
    25   24   25 1   
    26   24   34 1   
    27   24   35 1   
    28   25   26 1   
    29   25   37 1   
    30   26   27 1   
    31   26   41 1   
    32   26   42 1   
    33   27   28 1   
    34   27   36 1   
    35   27   43 1   
    36   28   29 1   
    37   28   33 1   
    38   28   44 1   
    39   29   30 1   
    40   29   37 1   
    41   29   45 1   
    42   30   31 1   
    43   30   38 1   
    44   30   46 1   
    45   31   32 1   
    46   31   39 1   
    47   31   47 1   
    48   32   40 1   
    49   32   48 1   
    50   32   49 1   
    51   33   50 1   
    52   33   66 1   
    53   36   51 1   
    54   38   52 1   
    55   39   53 1   
    56   40   54 1   
    57   55   56 ar  
    58   55   60 ar  
    59   55   67 1   
    60   56   57 ar  
    61   56   68 1   
    62   57   58 ar  
    63   57   69 1   
    64   58   59 ar  
    65   58   70 1   
    66   59   60 ar  
    67   59   71 1   
    68   60   61 1   
    69   61   62 1   
    70   61   72 1   
    71   61   73 1   
    72   62   63 1   
    73   62   74 1   
    74   62   75 1   
    75   63   64 1   
    76   63   76 1   
    77   63   77 1   
    78   64   65 1   
    79   64   66 1   
    80   64   78 1   
    81   65   66 1   
    82   65   79 1   
    83   65   80 1   
    84   66   81 1   
@<TRIPOS>SUBSTRUCTURE
     1 GAL         1 TEMP              0 ****  ****    0 ROOT
