@<TRIPOS>MOLECULE
GAL
   82    85     1     0     0
SMALL
bcc


@<TRIPOS>ATOM
      1 C1         38.3990   -0.6130   23.0120 c3      268 GAL      0.346900
      2 C2         39.5370   -0.1600   22.0740 c3      268 GAL      0.086100
      3 C3         39.9370   -1.2230   21.0270 c3      268 GAL      0.073100
      4 C4         39.9960   -2.6460   21.6010 c3      268 GAL      0.073100
      5 C5         38.7160   -2.9080   22.3720 c3      268 GAL      0.081100
      6 C6         38.6800   -4.3130   22.9350 c3      268 GAL      0.144400
      7 O7         38.2830    0.2500   24.1570 oh      268 GAL     -0.600800
      8 O8         39.1310    1.0290   21.3780 oh      268 GAL     -0.593800
      9 O9         41.1950   -0.8830   20.4290 oh      268 GAL     -0.607800
     10 O10        41.1100   -2.8480   22.4840 oh      268 GAL     -0.604800
     11 O11        38.6200   -1.9640   23.4510 os      268 GAL     -0.473600
     12 O12        37.3980   -4.4130   23.5480 os      268 GAL     -0.406600
     13 H13        37.4390   -0.5780   22.4450 h2      268 GAL      0.059700
     14 H14        40.4320    0.0810   22.6940 h1      268 GAL      0.051700
     15 H15        39.1650   -1.2140   20.2220 h1      268 GAL      0.102700
     16 H16        40.0660   -3.3730   20.7590 h1      268 GAL      0.155700
     17 H17        37.8460   -2.7680   21.6890 h1      268 GAL      0.107700
     18 H18        39.5310   -4.5550   23.6140 h1      268 GAL      0.075200
     19 H19        38.8910   -5.1110   22.1850 h1      268 GAL      0.075200
     20 H20        37.5820   -0.0290   24.7350 ho      268 GAL      0.420000
     21 H21        39.8320    1.3080   20.8000 ho      268 GAL      0.413000
     22 H22        41.4410   -1.5370   19.7850 ho      268 GAL      0.417000
     23 H23        41.1470   -3.7280   22.8390 ho      268 GAL      0.403000
     24 C24        36.2720   -5.3090   21.5890 c       269 SIA      0.888600
     25 C25        36.5300   -5.4420   23.0840 c3      269 SIA      0.215600
     26 C26        35.2050   -5.2870   23.8360 c3      269 SIA     -0.117400
     27 C27        34.3580   -6.5300   23.6620 c3      269 SIA      0.113100
     28 C28        35.1640   -7.7150   24.1570 c3      269 SIA      0.153500
     29 C29        36.4390   -7.8520   23.3210 c3      269 SIA      0.118100
     30 C30        37.4030   -8.9740   23.6990 c3      269 SIA      0.127100
     31 C31        38.7620   -8.8460   22.9850 c3      269 SIA      0.087100
     32 C32        39.5740  -10.1410   23.0160 c3      269 SIA      0.136400
     33 N33        34.2620   -8.8180   23.8790 n3      269 SIA     -0.789200
     34 O34        35.6210   -4.3300   21.1570 o       269 SIA     -0.815300
     35 O35        36.7240   -6.1790   20.8170 o       269 SIA     -0.815300
     36 O36        33.1130   -6.4330   24.3650 oh      269 SIA     -0.641800
     37 O37        37.1950   -6.6610   23.4300 os      269 SIA     -0.459600
     38 O38        37.5580   -8.9620   25.1100 oh      269 SIA     -0.612800
     39 O39        38.5660   -8.5170   21.6000 oh      269 SIA     -0.634800
     40 O40        40.8620   -9.9660   22.3880 oh      269 SIA     -0.617800
     41 H41        34.6580   -4.3640   23.5320 hc      269 SIA      0.067200
     42 H42        35.3630   -5.0370   24.9110 hc      269 SIA      0.067200
     43 H43        34.1460   -6.6700   22.5760 h1      269 SIA      0.066700
     44 H44        35.3920   -7.6330   25.2450 h1      269 SIA      0.073700
     45 H45        36.1460   -7.9860   22.2530 h1      269 SIA      0.093700
     46 H46        36.9430   -9.9460   23.4050 h1      269 SIA      0.094700
     47 H47        39.3530   -8.0350   23.4710 h1      269 SIA      0.054700
     48 H48        39.0090  -10.9890   22.5630 h1      269 SIA      0.046200
     49 H49        39.6750  -10.5370   24.0540 h1      269 SIA      0.046200
     50 H50        33.5460   -8.7070   23.1610 hn      269 SIA      0.369800
     51 H51        32.5820   -7.2130   24.2560 ho      269 SIA      0.409000
     52 H52        38.1580   -9.6600   25.3450 ho      269 SIA      0.412000
     53 H53        39.4040   -8.4380   21.1600 ho      269 SIA      0.464000
     54 H54        41.3670  -10.7710   22.4070 ho      269 SIA      0.417000
     55 N55        32.7000   -9.4470   28.3130 n         1 UNK     -0.546900
     56 C56        33.8300  -10.3840   28.4040 c3        1 UNK      0.088000
     57 C57        34.1240  -11.0610   27.0490 c3        1 UNK     -0.074400
     58 C58        34.7740  -10.0890   26.0580 cx        1 UNK     -0.181700
     59 C59        35.7100  -10.6240   24.9970 cx        1 UNK     -0.127400
     60 C60        34.3560  -10.0880   24.6060 cx        1 UNK      0.145500
     61 H61        34.7230   -9.8480   28.7520 h1        1 UNK      0.055700
     62 H62        33.5970  -11.1580   29.1500 h1        1 UNK      0.055700
     63 H63        34.7980  -11.9140   27.2100 hc        1 UNK      0.044200
     64 H64        33.1920  -11.4670   26.6340 hc        1 UNK      0.044200
     65 H65        35.0550   -9.1390   26.5080 hc        1 UNK      0.093700
     66 H66        36.6010  -10.0360   24.7840 hc        1 UNK      0.079200
     67 H67        35.8650  -11.7000   24.9380 hc        1 UNK      0.079200
     68 H68        33.5910  -10.8050   24.3200 h1        1 UNK      0.078700
     69 C69        32.2950   -8.8610   27.1310 c         1 UNK      0.661700
     70 H70        32.2030   -9.1900   29.1480 hn        1 UNK      0.330500
     71 O71        32.8440   -9.1320   26.0780 o         1 UNK     -0.632100
     72 C72        31.1460   -7.8870   27.2000 ca        1 UNK     -0.140600
     73 C73        30.6670   -7.3130   26.0030 ca        1 UNK     -0.093500
     74 C74        29.6040   -6.3950   26.0190 ca        1 UNK     -0.143500
     75 C75        29.0030   -6.0370   27.2340 ca        1 UNK     -0.112000
     76 C76        29.4690   -6.5980   28.4330 ca        1 UNK     -0.143500
     77 C77        30.5320   -7.5160   28.4200 ca        1 UNK     -0.093500
     78 H78        30.8700   -7.9270   29.3650 ha        1 UNK      0.153000
     79 H79        31.1280   -7.5820   25.0540 ha        1 UNK      0.153000
     80 H80        29.2500   -5.9620   25.0860 ha        1 UNK      0.138500
     81 H81        28.1810   -5.3260   27.2460 ha        1 UNK      0.131000
     82 H82        29.0050   -6.3180   29.3760 ha        1 UNK      0.138500
@<TRIPOS>BOND
     1    1    2 1   
     2    1    7 1   
     3    1   11 1   
     4    1   13 1   
     5    2    3 1   
     6    2    8 1   
     7    2   14 1   
     8    3    4 1   
     9    3    9 1   
    10    3   15 1   
    11    4    5 1   
    12    4   10 1   
    13    4   16 1   
    14    5    6 1   
    15    5   11 1   
    16    5   17 1   
    17    6   12 1   
    18    6   18 1   
    19    6   19 1   
    20    7   20 1   
    21    8   21 1   
    22    9   22 1   
    23   10   23 1   
    24   12   25 1   
    25   24   25 1   
    26   24   34 1   
    27   24   35 1   
    28   25   26 1   
    29   25   37 1   
    30   26   27 1   
    31   26   41 1   
    32   26   42 1   
    33   27   28 1   
    34   27   36 1   
    35   27   43 1   
    36   28   29 1   
    37   28   33 1   
    38   28   44 1   
    39   29   30 1   
    40   29   37 1   
    41   29   45 1   
    42   30   31 1   
    43   30   38 1   
    44   30   46 1   
    45   31   32 1   
    46   31   39 1   
    47   31   47 1   
    48   32   40 1   
    49   32   48 1   
    50   32   49 1   
    51   33   50 1   
    52   33   60 1   
    53   36   51 1   
    54   38   52 1   
    55   39   53 1   
    56   40   54 1   
    57   55   56 1   
    58   55   69 1   
    59   55   70 1   
    60   56   57 1   
    61   56   61 1   
    62   56   62 1   
    63   57   58 1   
    64   57   63 1   
    65   57   64 1   
    66   58   59 1   
    67   58   60 1   
    68   58   65 1   
    69   59   60 1   
    70   59   66 1   
    71   59   67 1   
    72   60   68 1   
    73   69   71 2   
    74   69   72 1   
    75   72   73 ar  
    76   72   77 ar  
    77   73   74 ar  
    78   73   79 1   
    79   74   75 ar  
    80   74   80 1   
    81   75   76 ar  
    82   75   81 1   
    83   76   77 ar  
    84   76   82 1   
    85   77   78 1   
@<TRIPOS>SUBSTRUCTURE
     1 GAL         1 TEMP              0 ****  ****    0 ROOT
