MODEL 0
REMARK FAKE_HEAD_ATOM=C1_N1
REMARK REAL_HEAD_ATOM=C2_C3
REMARK DUMMY_ATOM=H1_H2_H3_C1_N1_H4
REMARK TORSION=H5_C2_C3_C4
ROOT
HETATM    1  C1  LIG     1      -9.371   1.081   0.079  1.00  0.00     0.094 C 
HETATM    2  N1  LIG     1      -7.910   1.114   0.023  1.00  0.00     0.083 N 
HETATM    3  C2  LIG     1      -7.359   1.777   1.208  1.00  0.00     0.137 C 
HETATM    4  C3  LIG     1      -5.862   1.721   1.177  1.00  0.00    -0.001 A 
HETATM    5  C4  LIG     1      -4.987   2.805   1.156  1.00  0.00    -0.013 A 
HETATM    6  N2  LIG     1      -3.708   2.362   1.134  1.00  0.00    -0.350 N 
HETATM    7  C5  LIG     1      -3.775   1.020   1.143  1.00  0.00     0.138 A 
HETATM    8  C6  LIG     1      -5.069   0.591   1.170  1.00  0.00     0.019 A 
HETATM    9  C7  LIG     1      -5.371  -0.766   1.186  1.00  0.00    -0.067 A 
HETATM   10  C8  LIG     1      -4.295  -1.671   1.173  1.00  0.00    -0.065 A 
HETATM   11  C9  LIG     1      -2.967  -1.183   1.145  1.00  0.00     0.004 A 
HETATM   12  N3  LIG     1      -2.723   0.164   1.131  1.00  0.00    -0.242 NA
HETATM   13  H1  LIG     1      -9.764   0.586  -0.835  1.00  0.00     0.071 H 
HETATM   14  H2  LIG     1      -9.790   2.110   0.131  1.00  0.00     0.071 H 
HETATM   15  H3  LIG     1      -9.710   0.494   0.960  1.00  0.00     0.071 H 
HETATM   16  H4  LIG     1      -7.624   1.650  -0.830  1.00  0.00     0.315 HD
HETATM   17  H5  LIG     1      -7.705   1.263   2.132  1.00  0.00     0.087 H 
HETATM   18  H6  LIG     1      -7.694   2.838   1.242  1.00  0.00     0.087 H 
HETATM   19  H7  LIG     1      -5.267   3.851   1.156  1.00  0.00     0.112 H 
HETATM   20  H8  LIG     1      -2.843   2.947   1.115  1.00  0.00     0.166 HD
HETATM   21  H9  LIG     1      -6.395  -1.116   1.208  1.00  0.00     0.085 H 
HETATM   22  H10 LIG     1      -4.482  -2.737   1.185  1.00  0.00     0.085 H 
HETATM   23  H11 LIG     1      -2.138  -1.877   1.136  1.00  0.00     0.114 H 
ENDROOT
TORSDOF 3
ENDMDL
