MODEL 0
REMARK FAKE_HEAD_ATOM=C4_N1
REMARK REAL_HEAD_ATOM=C3_C2
REMARK DUMMY_ATOM=H8_H9_H10_C4_N1_H7
REMARK TORSION=H6_C3_C2_C1
ROOT
HETATM    1  C1  LIG     1      -6.014   0.856   0.485  1.00  0.00    -0.072 C 
HETATM    2  C2  LIG     1      -4.723   0.720   1.324  1.00  0.00    -0.036 C 
HETATM    3  C3  LIG     1      -3.708   1.835   0.982  1.00  0.00     0.113 C 
HETATM    4  N1  LIG     1      -4.230   3.165   1.354  1.00  0.00     0.079 N 
HETATM    5  C4  LIG     1      -3.292   4.251   1.016  1.00  0.00     0.093 C 
HETATM    6  C5  LIG     1      -4.082  -0.663   1.089  1.00  0.00    -0.072 C 
HETATM    7  H1  LIG     1      -6.513   1.807   0.687  1.00  0.00     0.028 H 
HETATM    8  H2  LIG     1      -6.714   0.053   0.727  1.00  0.00     0.028 H 
HETATM    9  H3  LIG     1      -5.790   0.807  -0.583  1.00  0.00     0.028 H 
HETATM   10  H4  LIG     1      -4.986   0.797   2.383  1.00  0.00     0.041 H 
HETATM   11  H5  LIG     1      -3.488   1.812  -0.090  1.00  0.00     0.080 H 
HETATM   12  H6  LIG     1      -2.779   1.654   1.530  1.00  0.00     0.080 H 
HETATM   13  H7  LIG     1      -4.441   3.187   2.350  1.00  0.00     0.315 HD
HETATM   14  H8  LIG     1      -3.087   4.249  -0.058  1.00  0.00     0.071 H 
HETATM   15  H9  LIG     1      -2.354   4.119   1.563  1.00  0.00     0.071 H 
HETATM   16  H10 LIG     1      -3.732   5.212   1.291  1.00  0.00     0.071 H 
HETATM   17  H11 LIG     1      -3.799  -0.788   0.041  1.00  0.00     0.028 H 
HETATM   18  H12 LIG     1      -4.781  -1.460   1.354  1.00  0.00     0.028 H 
HETATM   19  H13 LIG     1      -3.187  -0.780   1.703  1.00  0.00     0.028 H 
ENDROOT
TORSDOF 5
ENDMDL
