MODEL 0
REMARK FAKE_HEAD_ATOM=C5_N1
REMARK REAL_HEAD_ATOM=C4_C3
REMARK DUMMY_ATOM=H10_H11_H12_C5_N1_H9
REMARK TORSION=H8_C4_C3_C6
REMARK TORSION=C4_C3_C6_C7
REMARK TORSION=C4_C3_C2_C1
ROOT
HETATM    1  C1  LIG     1      -6.874  -1.251   0.232  1.00  0.00    -0.076 C 
HETATM    2  C2  LIG     1      -5.731  -0.500  -0.452  1.00  0.00    -0.064 C 
HETATM    3  C3  LIG     1      -4.953   0.440   0.505  1.00  0.00    -0.029 C 
HETATM    4  C4  LIG     1      -5.829   1.529   1.179  1.00  0.00     0.114 C 
HETATM    5  N1  LIG     1      -6.496   2.407   0.209  1.00  0.00     0.079 N 
HETATM    6  C5  LIG     1      -7.210   3.486   0.890  1.00  0.00     0.093 C 
HETATM    7  C6  LIG     1      -3.685   1.021  -0.180  1.00  0.00    -0.064 C 
HETATM    8  C7  LIG     1      -3.921   1.920  -1.397  1.00  0.00    -0.076 C 
HETATM    9  H1  LIG     1      -7.349  -1.941  -0.496  1.00  0.00     0.027 H 
HETATM   10  H2  LIG     1      -7.655  -0.552   0.595  1.00  0.00     0.027 H 
HETATM   11  H3  LIG     1      -6.486  -1.848   1.085  1.00  0.00     0.027 H 
HETATM   12  H4  LIG     1      -6.142   0.062  -1.316  1.00  0.00     0.033 H 
HETATM   13  H5  LIG     1      -5.025  -1.262  -0.849  1.00  0.00     0.033 H 
HETATM   14  H6  LIG     1      -4.565  -0.194   1.334  1.00  0.00     0.042 H 
HETATM   15  H7  LIG     1      -5.174   2.130   1.849  1.00  0.00     0.080 H 
HETATM   16  H8  LIG     1      -6.593   1.045   1.825  1.00  0.00     0.080 H 
HETATM   17  H9  LIG     1      -7.198   1.857  -0.335  1.00  0.00     0.315 HD
HETATM   18  H10 LIG     1      -6.501   4.114   1.470  1.00  0.00     0.071 H 
HETATM   19  H11 LIG     1      -7.990   3.077   1.570  1.00  0.00     0.071 H 
HETATM   20  H12 LIG     1      -7.705   4.134   0.136  1.00  0.00     0.071 H 
HETATM   21  H13 LIG     1      -3.049   0.171  -0.510  1.00  0.00     0.033 H 
HETATM   22  H14 LIG     1      -3.102   1.597   0.571  1.00  0.00     0.033 H 
HETATM   23  H15 LIG     1      -4.466   1.379  -2.197  1.00  0.00     0.027 H 
HETATM   24  H16 LIG     1      -2.939   2.236  -1.808  1.00  0.00     0.027 H 
HETATM   25  H17 LIG     1      -4.472   2.841  -1.124  1.00  0.00     0.027 H 
ENDROOT
TORSDOF 7
ENDMDL
