MODEL 0
REMARK FAKE_HEAD_ATOM=C1_N1
REMARK REAL_HEAD_ATOM=C2_C3
REMARK DUMMY_ATOM=H1_H2_H3_C1_N1_H4
REMARK TORSION=H5_C2_C3_N2
ROOT
HETATM    1  C1  LIG     1      -8.779   2.791   0.092  1.00  0.00     0.094 C 
HETATM    2  N1  LIG     1      -7.368   2.455   0.282  1.00  0.00     0.085 N 
HETATM    3  C2  LIG     1      -6.774   1.978  -0.971  1.00  0.00     0.156 C 
HETATM    4  C3  LIG     1      -5.316   1.713  -0.776  1.00  0.00     0.102 A 
HETATM    5  N2  LIG     1      -4.724   0.506  -0.957  1.00  0.00    -0.256 NA
HETATM    6  C4  LIG     1      -3.367   0.550  -0.712  1.00  0.00     0.009 A 
HETATM    7  C5  LIG     1      -2.871   1.806  -0.333  1.00  0.00    -0.026 A 
HETATM    8  S1  LIG     1      -4.178   2.820  -0.321  1.00  0.00    -0.083 SA
HETATM    9  H1  LIG     1      -9.205   3.144   1.055  1.00  0.00     0.071 H 
HETATM   10  H2  LIG     1      -9.355   1.903  -0.246  1.00  0.00     0.071 H 
HETATM   11  H3  LIG     1      -8.884   3.610  -0.651  1.00  0.00     0.071 H 
HETATM   12  H4  LIG     1      -7.304   1.696   1.000  1.00  0.00     0.315 HD
HETATM   13  H5  LIG     1      -6.882   2.749  -1.765  1.00  0.00     0.090 H 
HETATM   14  H6  LIG     1      -7.280   1.044  -1.304  1.00  0.00     0.090 H 
HETATM   15  H7  LIG     1      -2.739  -0.325  -0.809  1.00  0.00     0.115 H 
HETATM   16  H8  LIG     1      -1.845   2.055  -0.098  1.00  0.00     0.097 H 
ENDROOT
TORSDOF 3
ENDMDL
