MODEL 0
REMARK FAKE_HEAD_ATOM=C9_N2
REMARK REAL_HEAD_ATOM=C8_C7
REMARK DUMMY_ATOM=H6_H7_H8_C9_N2_H5
REMARK TORSION=H4_C8_C7_C6
ROOT
HETATM    1  O1  LIG     1      -7.144  -0.376   0.766  1.00  0.00    -0.532 OA
HETATM    2  N1  LIG     1      -6.855   0.771   0.929  1.00  0.00    -0.116 N 
HETATM    3  C1  LIG     1      -5.500   1.204   0.784  1.00  0.00     0.104 A 
HETATM    4  C2  LIG     1      -5.158   2.558   0.976  1.00  0.00    -0.048 A 
HETATM    5  C3  LIG     1      -3.836   2.983   0.834  1.00  0.00    -0.047 A 
HETATM    6  C4  LIG     1      -2.832   2.071   0.499  1.00  0.00     0.089 A 
HETATM    7  C5  LIG     1      -3.152   0.712   0.303  1.00  0.00     0.051 A 
HETATM    8  C6  LIG     1      -2.118  -0.178  -0.034  1.00  0.00     0.194 A 
HETATM    9  C7  LIG     1      -0.804   0.305  -0.164  1.00  0.00     0.043 A 
HETATM   10  C8  LIG     1       0.316  -0.654  -0.533  1.00  0.00     0.140 C 
HETATM   11  N2  LIG     1       1.629   0.001  -0.614  1.00  0.00     0.083 N 
HETATM   12  C9  LIG     1       2.647  -0.935  -1.092  1.00  0.00     0.094 C 
HETATM   13  C10 LIG     1      -0.577   1.679   0.049  1.00  0.00     0.031 A 
HETATM   14  O2  LIG     1      -1.579   2.494   0.367  1.00  0.00    -0.321 OA
HETATM   15  O3  LIG     1      -2.356  -1.363  -0.213  1.00  0.00    -0.287 OA
HETATM   16  C11 LIG     1      -4.486   0.285   0.446  1.00  0.00    -0.035 A 
HETATM   17  O4  LIG     1      -7.712   1.553   1.215  1.00  0.00    -0.532 OA
HETATM   18  H1  LIG     1      -5.917   3.285   1.236  1.00  0.00     0.087 H 
HETATM   19  H2  LIG     1      -3.590   4.027   0.985  1.00  0.00     0.087 H 
HETATM   20  H3  LIG     1       0.063  -1.102  -1.519  1.00  0.00     0.087 H 
HETATM   21  H4  LIG     1       0.356  -1.467   0.228  1.00  0.00     0.087 H 
HETATM   22  H5  LIG     1       1.909   0.316   0.344  1.00  0.00     0.315 HD
HETATM   23  H6  LIG     1       2.398  -1.290  -2.115  1.00  0.00     0.071 H 
HETATM   24  H7  LIG     1       2.738  -1.806  -0.405  1.00  0.00     0.071 H 
HETATM   25  H8  LIG     1       3.629  -0.418  -1.137  1.00  0.00     0.071 H 
HETATM   26  H9  LIG     1       0.414   2.100  -0.045  1.00  0.00     0.124 H 
HETATM   27  H10 LIG     1      -4.737  -0.758   0.296  1.00  0.00     0.088 H 
ENDROOT
TORSDOF 4
ENDMDL
