MODEL 0
REMARK FAKE_HEAD_ATOM=C5_N1
REMARK REAL_HEAD_ATOM=C4_C2
REMARK DUMMY_ATOM=C5_H10_H11_H12_N1_H9
REMARK TORSION=H7_C4_C2_C1
ROOT
HETATM    1  C1  LIG     1      -7.021   1.723   1.179  1.00  0.00    -0.068 C 
HETATM    2  C2  LIG     1      -5.730   1.698   0.332  1.00  0.00    -0.025 C 
HETATM    3  C3  LIG     1      -4.652   2.570   1.008  1.00  0.00    -0.068 C 
HETATM    4  C4  LIG     1      -5.210   0.244   0.149  1.00  0.00     0.117 C 
HETATM    5  N1  LIG     1      -4.835  -0.390   1.422  1.00  0.00     0.079 N 
HETATM    6  C5  LIG     1      -4.260  -1.715   1.187  1.00  0.00     0.093 C 
HETATM    7  C6  LIG     1      -6.047   2.284  -1.059  1.00  0.00    -0.068 C 
HETATM    8  H1  LIG     1      -6.843   1.359   2.211  1.00  0.00     0.028 H 
HETATM    9  H2  LIG     1      -7.806   1.091   0.711  1.00  0.00     0.028 H 
HETATM   10  H3  LIG     1      -7.413   2.760   1.262  1.00  0.00     0.028 H 
HETATM   11  H4  LIG     1      -4.404   2.184   2.019  1.00  0.00     0.028 H 
HETATM   12  H5  LIG     1      -5.008   3.618   1.118  1.00  0.00     0.028 H 
HETATM   13  H6  LIG     1      -3.721   2.583   0.401  1.00  0.00     0.028 H 
HETATM   14  H7  LIG     1      -4.315   0.277  -0.514  1.00  0.00     0.080 H 
HETATM   15  H8  LIG     1      -5.988  -0.370  -0.361  1.00  0.00     0.080 H 
HETATM   16  H9  LIG     1      -5.684  -0.525   2.016  1.00  0.00     0.315 HD
HETATM   17  H10 LIG     1      -3.347  -1.638   0.559  1.00  0.00     0.071 H 
HETATM   18  H11 LIG     1      -4.999  -2.382   0.688  1.00  0.00     0.071 H 
HETATM   19  H12 LIG     1      -3.973  -2.172   2.157  1.00  0.00     0.071 H 
HETATM   20  H13 LIG     1      -6.420   3.327  -0.972  1.00  0.00     0.028 H 
HETATM   21  H14 LIG     1      -6.824   1.679  -1.573  1.00  0.00     0.028 H 
HETATM   22  H15 LIG     1      -5.137   2.296  -1.698  1.00  0.00     0.028 H 
ENDROOT
TORSDOF 6
ENDMDL
