MODEL 0
REMARK FAKE_HEAD_ATOM=C7_N1
REMARK REAL_HEAD_ATOM=C6_C5
REMARK DUMMY_ATOM=H5_H6_H7_C7_N1_H4
REMARK TORSION=H2_C6_C5_C4
ROOT
HETATM    1 CL1  LIG     1      -9.293  -1.162   1.537  1.00  0.00    -0.084 Cl
HETATM    2  C1  LIG     1      -7.604  -1.144   1.063  1.00  0.00     0.036 A 
HETATM    3  C2  LIG     1      -6.954   0.075   0.846  1.00  0.00    -0.045 A 
HETATM    4  C3  LIG     1      -5.598   0.094   0.466  1.00  0.00     0.052 A 
HETATM    5  C4  LIG     1      -4.909   1.297   0.237  1.00  0.00     0.194 A 
HETATM    6  C5  LIG     1      -3.556   1.258  -0.142  1.00  0.00     0.043 A 
HETATM    7  C6  LIG     1      -2.810   2.559  -0.390  1.00  0.00     0.140 C 
HETATM    8  N1  LIG     1      -1.410   2.356  -0.787  1.00  0.00     0.083 N 
HETATM    9  C7  LIG     1      -0.722   3.640  -0.930  1.00  0.00     0.094 C 
HETATM   10  C8  LIG     1      -2.939  -0.002  -0.274  1.00  0.00     0.031 A 
HETATM   11  O1  LIG     1      -3.621  -1.121  -0.051  1.00  0.00    -0.319 OA
HETATM   12  O2  LIG     1      -5.479   2.370   0.364  1.00  0.00    -0.287 OA
HETATM   13  C9  LIG     1      -4.902  -1.124   0.306  1.00  0.00     0.111 A 
HETATM   14  C10 LIG     1      -5.565  -2.341   0.526  1.00  0.00     0.070 A 
HETATM   15 CL2  LIG     1      -4.715  -3.867   0.331  1.00  0.00    -0.081 Cl
HETATM   16  C11 LIG     1      -6.912  -2.348   0.903  1.00  0.00    -0.038 A 
HETATM   17  H1  LIG     1      -7.504   0.999   0.974  1.00  0.00     0.087 H 
HETATM   18  H2  LIG     1      -2.844   3.151   0.551  1.00  0.00     0.087 H 
HETATM   19  H3  LIG     1      -3.341   3.126  -1.188  1.00  0.00     0.087 H 
HETATM   20  H4  LIG     1      -1.386   1.880  -1.719  1.00  0.00     0.315 HD
HETATM   21  H5  LIG     1      -0.727   4.193   0.033  1.00  0.00     0.071 H 
HETATM   22  H6  LIG     1      -1.203   4.259  -1.718  1.00  0.00     0.071 H 
HETATM   23  H7  LIG     1       0.334   3.461  -1.219  1.00  0.00     0.071 H 
HETATM   24  H8  LIG     1      -1.900  -0.085  -0.557  1.00  0.00     0.124 H 
HETATM   25  H9  LIG     1      -7.421  -3.288   1.072  1.00  0.00     0.088 H 
ENDROOT
TORSDOF 3
ENDMDL
