MODEL 0
REMARK FAKE_HEAD_ATOM=C1_N1
REMARK REAL_HEAD_ATOM=C2_C3
REMARK DUMMY_ATOM=H1_H2_H3_C1_N1_H4
REMARK TORSION=H6_C2_C3_C4
REMARK TORSION=C4_C5_C6_C7
ROOT
HETATM    1  C1  LIG     1      -9.884  -2.041   1.593  1.00  0.00     0.094 C 
HETATM    2  N1  LIG     1      -8.522  -2.004   1.061  1.00  0.00     0.083 N 
HETATM    3  C2  LIG     1      -7.608  -1.362   2.012  1.00  0.00     0.134 C 
HETATM    4  C3  LIG     1      -6.209  -1.348   1.451  1.00  0.00    -0.030 A 
HETATM    5  C4  LIG     1      -5.550  -0.130   1.209  1.00  0.00    -0.065 A 
HETATM    6  C5  LIG     1      -4.241  -0.100   0.666  1.00  0.00    -0.025 A 
HETATM    7  C6  LIG     1      -3.534   1.214   0.392  1.00  0.00    -0.026 A 
HETATM    8  C7  LIG     1      -4.028   2.439   0.911  1.00  0.00    -0.072 A 
HETATM    9  C8  LIG     1      -3.373   3.646   0.649  1.00  0.00    -0.082 A 
HETATM   10  C9  LIG     1      -2.222   3.667  -0.132  1.00  0.00    -0.083 A 
HETATM   11  C10 LIG     1      -1.717   2.480  -0.655  1.00  0.00    -0.082 A 
HETATM   12  C11 LIG     1      -2.358   1.265  -0.399  1.00  0.00    -0.072 A 
HETATM   13  C12 LIG     1      -3.618  -1.342   0.384  1.00  0.00    -0.072 A 
HETATM   14  C13 LIG     1      -4.276  -2.548   0.634  1.00  0.00    -0.082 A 
HETATM   15  C14 LIG     1      -5.563  -2.554   1.162  1.00  0.00    -0.075 A 
HETATM   16  H1  LIG     1     -10.554  -2.530   0.854  1.00  0.00     0.071 H 
HETATM   17  H2  LIG     1     -10.262  -1.012   1.784  1.00  0.00     0.071 H 
HETATM   18  H3  LIG     1      -9.917  -2.632   2.534  1.00  0.00     0.071 H 
HETATM   19  H4  LIG     1      -8.533  -1.448   0.173  1.00  0.00     0.315 HD
HETATM   20  H5  LIG     1      -7.596  -1.923   2.972  1.00  0.00     0.086 H 
HETATM   21  H6  LIG     1      -7.956  -0.325   2.223  1.00  0.00     0.086 H 
HETATM   22  H7  LIG     1      -6.084   0.777   1.431  1.00  0.00     0.085 H 
HETATM   23  H8  LIG     1      -4.906   2.485   1.531  1.00  0.00     0.084 H 
HETATM   24  H9  LIG     1      -3.763   4.569   1.058  1.00  0.00     0.083 H 
HETATM   25  H10 LIG     1      -1.721   4.605  -0.334  1.00  0.00     0.083 H 
HETATM   26  H11 LIG     1      -0.823   2.500  -1.266  1.00  0.00     0.083 H 
HETATM   27  H12 LIG     1      -1.928   0.382  -0.841  1.00  0.00     0.084 H 
HETATM   28  H13 LIG     1      -2.621  -1.402  -0.016  1.00  0.00     0.084 H 
HETATM   29  H14 LIG     1      -3.781  -3.486   0.416  1.00  0.00     0.083 H 
HETATM   30  H15 LIG     1      -6.060  -3.498   1.347  1.00  0.00     0.084 H 
ENDROOT
TORSDOF 4
ENDMDL
