MODEL 0
REMARK FAKE_HEAD_ATOM=C1_N1
REMARK REAL_HEAD_ATOM=C2_C3
REMARK DUMMY_ATOM=H1_H2_H3_C1_N1_H4
REMARK TORSION=H6_C2_C3_C4
REMARK TORSION=C7_C8_C9_C10
ROOT
HETATM    1  C1  LIG     1      -9.263   2.195   0.003  1.00  0.00     0.094 C 
HETATM    2  N1  LIG     1      -7.807   2.316  -0.067  1.00  0.00     0.083 N 
HETATM    3  C2  LIG     1      -7.185   1.019  -0.362  1.00  0.00     0.134 C 
HETATM    4  C3  LIG     1      -5.696   1.124  -0.623  1.00  0.00    -0.030 A 
HETATM    5  C4  LIG     1      -5.009   2.347  -0.600  1.00  0.00    -0.074 A 
HETATM    6  C5  LIG     1      -3.637   2.399  -0.861  1.00  0.00    -0.072 A 
HETATM    7  C6  LIG     1      -4.983  -0.044  -0.910  1.00  0.00    -0.074 A 
HETATM    8  C7  LIG     1      -3.611  -0.002  -1.171  1.00  0.00    -0.072 A 
HETATM    9  C8  LIG     1      -2.900   1.224  -1.156  1.00  0.00    -0.026 A 
HETATM   10  C9  LIG     1      -1.409   1.279  -1.452  1.00  0.00    -0.026 A 
HETATM   11  C10 LIG     1      -0.727   2.517  -1.589  1.00  0.00    -0.072 A 
HETATM   12  C11 LIG     1       0.642   2.559  -1.867  1.00  0.00    -0.082 A 
HETATM   13  C12 LIG     1       1.367   1.381  -2.014  1.00  0.00    -0.083 A 
HETATM   14  C13 LIG     1       0.727   0.153  -1.884  1.00  0.00    -0.082 A 
HETATM   15  C14 LIG     1      -0.642   0.093  -1.607  1.00  0.00    -0.072 A 
HETATM   16  H1  LIG     1      -9.702   3.186   0.242  1.00  0.00     0.071 H 
HETATM   17  H2  LIG     1      -9.561   1.471   0.793  1.00  0.00     0.071 H 
HETATM   18  H3  LIG     1      -9.669   1.867  -0.979  1.00  0.00     0.071 H 
HETATM   19  H4  LIG     1      -7.461   2.651   0.863  1.00  0.00     0.315 HD
HETATM   20  H5  LIG     1      -7.650   0.579  -1.272  1.00  0.00     0.086 H 
HETATM   21  H6  LIG     1      -7.353   0.324   0.492  1.00  0.00     0.086 H 
HETATM   22  H7  LIG     1      -5.525   3.272  -0.384  1.00  0.00     0.084 H 
HETATM   23  H8  LIG     1      -3.176   3.369  -0.822  1.00  0.00     0.084 H 
HETATM   24  H9  LIG     1      -5.496  -0.999  -0.935  1.00  0.00     0.084 H 
HETATM   25  H10 LIG     1      -3.133  -0.939  -1.393  1.00  0.00     0.084 H 
HETATM   26  H11 LIG     1      -1.230   3.463  -1.496  1.00  0.00     0.084 H 
HETATM   27  H12 LIG     1       1.142   3.514  -1.970  1.00  0.00     0.083 H 
HETATM   28  H13 LIG     1       2.427   1.420  -2.229  1.00  0.00     0.083 H 
HETATM   29  H14 LIG     1       1.294  -0.763  -1.997  1.00  0.00     0.083 H 
HETATM   30  H15 LIG     1      -1.074  -0.887  -1.513  1.00  0.00     0.084 H 
ENDROOT
TORSDOF 4
ENDMDL
