MODEL 0
REMARK FAKE_HEAD_ATOM=C11_N10
REMARK REAL_HEAD_ATOM=C9_C8
REMARK DUMMY_ATOM=H22_H23_H24_C11_N10_H21
REMARK TORSION=H20_C9_C8_C7
ROOT
HETATM    1  F1  LIG     1      -9.172   2.237   0.066  1.00  0.00    -0.206 F 
HETATM    2  C2  LIG     1      -7.817   2.246   0.106  1.00  0.00     0.117 A 
HETATM    3  C3  LIG     1      -7.128   3.462   0.114  1.00  0.00    -0.043 A 
HETATM    4  C4  LIG     1      -5.731   3.477   0.154  1.00  0.00    -0.046 A 
HETATM    5  C5  LIG     1      -5.014   2.275   0.184  1.00  0.00     0.089 A 
HETATM    6  O6  LIG     1      -3.686   2.302   0.218  1.00  0.00    -0.321 OA
HETATM    7  C7  LIG     1      -2.948   1.196   0.244  1.00  0.00     0.031 A 
HETATM    8  C8  LIG     1      -3.552  -0.078   0.241  1.00  0.00     0.043 A 
HETATM    9  C9  LIG     1      -2.740  -1.362   0.263  1.00  0.00     0.140 C 
HETATM   10  N10 LIG     1      -1.291  -1.125   0.288  1.00  0.00     0.083 N 
HETATM   11  C11 LIG     1      -0.557  -2.385   0.168  1.00  0.00     0.094 C 
HETATM   12  C12 LIG     1      -4.956  -0.145   0.207  1.00  0.00     0.194 A 
HETATM   13  O13 LIG     1      -5.518  -1.229   0.201  1.00  0.00    -0.287 OA
HETATM   14  C14 LIG     1      -5.705   1.044   0.177  1.00  0.00     0.051 A 
HETATM   15  C15 LIG     1      -7.112   1.038   0.138  1.00  0.00    -0.029 A 
HETATM   16  H16 LIG     1      -7.676   4.395   0.089  1.00  0.00     0.088 H 
HETATM   17  H17 LIG     1      -5.204   4.423   0.159  1.00  0.00     0.087 H 
HETATM   18  H18 LIG     1      -1.872   1.300   0.265  1.00  0.00     0.124 H 
HETATM   19  H19 LIG     1      -3.004  -1.937  -0.652  1.00  0.00     0.087 H 
HETATM   20  H20 LIG     1      -3.035  -1.958   1.156  1.00  0.00     0.087 H 
HETATM   21  H21 LIG     1      -1.033  -0.689   1.204  1.00  0.00     0.315 HD
HETATM   22  H22 LIG     1      -0.801  -2.887  -0.793  1.00  0.00     0.071 H 
HETATM   23  H23 LIG     1      -0.797  -3.065   1.016  1.00  0.00     0.071 H 
HETATM   24  H24 LIG     1       0.534  -2.179   0.179  1.00  0.00     0.071 H 
HETATM   25  H25 LIG     1      -7.663   0.106   0.130  1.00  0.00     0.089 H 
ENDROOT
TORSDOF 3
ENDMDL
