MODEL 0
REMARK FAKE_HEAD_ATOM=C7_N1
REMARK REAL_HEAD_ATOM=C6_C5
REMARK DUMMY_ATOM=H9_H10_H11_C7_N1_H8
REMARK TORSION=H6_C6_C5_C4
REMARK TORSION=C3_C2_C1_O1
ROOT
HETATM    1  O1  LIG     1      -9.347  -0.504   0.197  1.00  0.00    -0.394 OA
HETATM    2  C1  LIG     1      -7.983  -0.477   0.514  1.00  0.00     0.061 C 
HETATM    3  C2  LIG     1      -7.431   0.906   0.355  1.00  0.00     0.076 A 
HETATM    4  O2  LIG     1      -6.176   1.216   0.585  1.00  0.00    -0.315 OA
HETATM    5  C3  LIG     1      -8.122   2.038  -0.044  1.00  0.00    -0.050 A 
HETATM    6  C4  LIG     1      -7.201   3.063  -0.042  1.00  0.00    -0.050 A 
HETATM    7  C5  LIG     1      -6.006   2.500   0.357  1.00  0.00     0.081 A 
HETATM    8  C6  LIG     1      -4.707   3.230   0.510  1.00  0.00     0.154 C 
HETATM    9  N1  LIG     1      -3.649   2.315   0.952  1.00  0.00     0.085 N 
HETATM   10  C7  LIG     1      -2.393   3.036   1.159  1.00  0.00     0.094 C 
HETATM   11  H1  LIG     1      -9.638  -1.445   0.318  1.00  0.00     0.209 HD
HETATM   12  H2  LIG     1      -7.425  -1.155  -0.169  1.00  0.00     0.084 H 
HETATM   13  H3  LIG     1      -7.835  -0.792   1.570  1.00  0.00     0.084 H 
HETATM   14  H4  LIG     1      -9.169   2.111  -0.306  1.00  0.00     0.087 H 
HETATM   15  H5  LIG     1      -7.382   4.098  -0.300  1.00  0.00     0.087 H 
HETATM   16  H6  LIG     1      -4.851   4.036   1.263  1.00  0.00     0.090 H 
HETATM   17  H7  LIG     1      -4.435   3.689  -0.467  1.00  0.00     0.090 H 
HETATM   18  H8  LIG     1      -3.491   1.592   0.211  1.00  0.00     0.315 HD
HETATM   19  H9  LIG     1      -2.515   3.807   1.950  1.00  0.00     0.071 H 
HETATM   20  H10 LIG     1      -2.053   3.518   0.216  1.00  0.00     0.071 H 
HETATM   21  H11 LIG     1      -1.610   2.323   1.493  1.00  0.00     0.071 H 
ENDROOT
TORSDOF 5
ENDMDL
