MODEL 0
REMARK FAKE_HEAD_ATOM=C10_N9
REMARK REAL_HEAD_ATOM=C8_C7
REMARK DUMMY_ATOM=H22_H23_H24_C10_N9_H21
REMARK TORSION=H20_C8_C7_C6
REMARK TORSION=C5_C4_C3_C2
ROOT
HETATM    1  O1  LIG     1      -1.151   3.203  -1.152  1.00  0.00    -0.776 OA
HETATM    2  C2  LIG     1      -1.555   2.662  -0.035  1.00  0.00     0.143 C 
HETATM    3  C3  LIG     1      -2.526   3.524   0.744  1.00  0.00     0.036 C 
HETATM    4  C4  LIG     1      -3.962   3.078   0.515  1.00  0.00    -0.048 A 
HETATM    5  C5  LIG     1      -4.505   2.037   1.271  1.00  0.00    -0.076 A 
HETATM    6  C6  LIG     1      -5.819   1.624   1.057  1.00  0.00    -0.075 A 
HETATM    7  C7  LIG     1      -6.602   2.246   0.085  1.00  0.00    -0.030 A 
HETATM    8  C8  LIG     1      -8.033   1.797  -0.150  1.00  0.00     0.134 C 
HETATM    9  N9  LIG     1      -8.984   2.679   0.551  1.00  0.00     0.083 N 
HETATM   10  C10 LIG     1     -10.386   2.269   0.347  1.00  0.00     0.094 C 
HETATM   11  C11 LIG     1      -6.061   3.287  -0.670  1.00  0.00    -0.075 A 
HETATM   12  C12 LIG     1      -4.747   3.700  -0.457  1.00  0.00    -0.076 A 
HETATM   13  O13 LIG     1      -1.267   1.524   0.273  1.00  0.00    -0.650 OA
HETATM   15  H15 LIG     1      -2.411   4.573   0.456  1.00  0.00     0.056 H 
HETATM   16  H16 LIG     1      -2.281   3.465   1.807  1.00  0.00     0.056 H 
HETATM   17  H17 LIG     1      -3.903   1.539   2.028  1.00  0.00     0.084 H 
HETATM   18  H18 LIG     1      -6.231   0.812   1.653  1.00  0.00     0.084 H 
HETATM   19  H19 LIG     1      -8.165   0.771   0.205  1.00  0.00     0.086 H 
HETATM   20  H20 LIG     1      -8.251   1.813  -1.222  1.00  0.00     0.086 H 
HETATM   21  H21 LIG     1      -8.856   3.640   0.239  1.00  0.00     0.315 HD
HETATM   22  H22 LIG     1     -10.535   1.249   0.712  1.00  0.00     0.071 H 
HETATM   23  H23 LIG     1     -10.638   2.312  -0.716  1.00  0.00     0.071 H 
HETATM   24  H24 LIG     1     -11.047   2.943   0.897  1.00  0.00     0.071 H 
HETATM   25  H25 LIG     1      -6.664   3.780  -1.429  1.00  0.00     0.084 H 
HETATM   26  H26 LIG     1      -4.336   4.510  -1.056  1.00  0.00     0.084 H 
ENDROOT
TORSDOF 6
ENDMDL
