MODEL 0
REMARK FAKE_HEAD_ATOM=C6_N5
REMARK REAL_HEAD_ATOM=C4_C3
REMARK DUMMY_ATOM=H19_H20_H21_C6_N5_H18
REMARK TORSION=H16_C4_C3_C7
ROOT
HETATM    1  O1  LIG     1      -5.716  -0.281   2.200  1.00  0.00    -0.287 OA
HETATM    2  C2  LIG     1      -5.019   0.563   1.658  1.00  0.00     0.194 A 
HETATM    3  C3  LIG     1      -5.610   1.698   1.073  1.00  0.00     0.043 A 
HETATM    4  C4  LIG     1      -7.120   1.866   1.121  1.00  0.00     0.140 C 
HETATM    5  N5  LIG     1      -7.583   3.086   0.445  1.00  0.00     0.083 N 
HETATM    6  C6  LIG     1      -9.027   3.254   0.610  1.00  0.00     0.094 C 
HETATM    7  C7  LIG     1      -4.766   2.647   0.462  1.00  0.00     0.031 A 
HETATM    8  O8  LIG     1      -3.448   2.471   0.437  1.00  0.00    -0.321 OA
HETATM    9  C9  LIG     1      -2.856   1.411   0.977  1.00  0.00     0.092 A 
HETATM   10  C10 LIG     1      -1.463   1.288   0.913  1.00  0.00    -0.012 A 
HETATM   11  C11 LIG     1      -0.829   0.177   1.477  1.00  0.00     0.119 A 
HETATM   12  F12 LIG     1       0.521   0.063   1.411  1.00  0.00    -0.206 F 
HETATM   13  C13 LIG     1      -1.583  -0.816   2.107  1.00  0.00    -0.045 A 
HETATM   14  C14 LIG     1      -2.975  -0.705   2.178  1.00  0.00    -0.064 A 
HETATM   15  C15 LIG     1      -3.623   0.410   1.612  1.00  0.00     0.049 A 
HETATM   16  H16 LIG     1      -7.422   1.897   2.191  1.00  0.00     0.087 H 
HETATM   17  H17 LIG     1      -7.592   0.978   0.642  1.00  0.00     0.087 H 
HETATM   18  H18 LIG     1      -7.388   2.998  -0.581  1.00  0.00     0.315 HD
HETATM   19  H19 LIG     1      -9.283   3.365   1.686  1.00  0.00     0.071 H 
HETATM   20  H20 LIG     1      -9.578   2.389   0.181  1.00  0.00     0.071 H 
HETATM   21  H21 LIG     1      -9.352   4.176   0.083  1.00  0.00     0.071 H 
HETATM   22  H22 LIG     1      -5.171   3.538   0.005  1.00  0.00     0.124 H 
HETATM   23  H23 LIG     1      -0.873   2.055   0.426  1.00  0.00     0.092 H 
HETATM   24  H24 LIG     1      -1.089  -1.675   2.543  1.00  0.00     0.088 H 
HETATM   25  H25 LIG     1      -3.542  -1.485   2.670  1.00  0.00     0.085 H 
ENDROOT
TORSDOF 3
ENDMDL
