MODEL 0
REMARK FAKE_HEAD_ATOM=C1_N1
REMARK REAL_HEAD_ATOM=C2_C3
REMARK DUMMY_ATOM=H1_H2_H3_C1_N1_H4
REMARK TORSION=H6_C2_C3_C4
ROOT
HETATM    1  C1  LIG     1     -10.027   1.954  -0.553  1.00  0.00     0.094 C 
HETATM    2  N1  LIG     1      -8.591   2.012  -0.276  1.00  0.00     0.085 N 
HETATM    3  C2  LIG     1      -7.822   2.067  -1.522  1.00  0.00     0.154 C 
HETATM    4  C3  LIG     1      -6.368   2.224  -1.211  1.00  0.00     0.080 A 
HETATM    5  C4  LIG     1      -5.358   1.357  -1.572  1.00  0.00    -0.051 A 
HETATM    6  C5  LIG     1      -4.196   1.906  -1.076  1.00  0.00    -0.059 A 
HETATM    7  C6  LIG     1      -4.563   3.077  -0.443  1.00  0.00     0.019 A 
HETATM    8  O1  LIG     1      -5.864   3.237  -0.542  1.00  0.00    -0.325 OA
HETATM    9  H1  LIG     1     -10.585   1.907   0.405  1.00  0.00     0.071 H 
HETATM   10  H2  LIG     1     -10.279   1.053  -1.155  1.00  0.00     0.071 H 
HETATM   11  H3  LIG     1     -10.352   2.869  -1.095  1.00  0.00     0.071 H 
HETATM   12  H4  LIG     1      -8.322   1.148   0.252  1.00  0.00     0.315 HD
HETATM   13  H5  LIG     1      -8.139   2.943  -2.129  1.00  0.00     0.090 H 
HETATM   14  H6  LIG     1      -7.986   1.140  -2.117  1.00  0.00     0.090 H 
HETATM   15  H7  LIG     1      -5.454   0.434  -2.128  1.00  0.00     0.087 H 
HETATM   16  H8  LIG     1      -3.197   1.503  -1.166  1.00  0.00     0.086 H 
HETATM   17  H9  LIG     1      -3.898   3.766   0.060  1.00  0.00     0.123 H 
ENDROOT
TORSDOF 3
ENDMDL
