MODEL 0
REMARK FAKE_HEAD_ATOM=C1_N2
REMARK REAL_HEAD_ATOM=C3_C4
REMARK DUMMY_ATOM=H10_H11_H12_C1_N2_H13
REMARK TORSION=H15_C3_C4_C9
ROOT
HETATM    1  C1  LIG     1      -9.419   1.885  -0.085  1.00  0.00     0.093 C 
HETATM    2  N2  LIG     1      -8.067   1.667  -0.602  1.00  0.00     0.081 N 
HETATM    3  C3  LIG     1      -7.137   1.365   0.494  1.00  0.00     0.140 C 
HETATM    4  C4  LIG     1      -5.711   0.950   0.018  1.00  0.00     0.159 C 
HETATM    5  N5  LIG     1      -5.596  -0.319  -0.764  1.00  0.00     0.090 N 
HETATM    6  C6  LIG     1      -6.827  -1.098  -0.979  1.00  0.00     0.096 C 
HETATM    7  C7  LIG     1      -4.960   0.050  -2.042  1.00  0.00     0.114 C 
HETATM    8  C8  LIG     1      -5.254   1.525  -2.235  1.00  0.00    -0.038 C 
HETATM    9  C9  LIG     1      -5.022   2.029  -0.829  1.00  0.00    -0.033 C 
HETATM   10  H10 LIG     1     -10.103   2.118  -0.928  1.00  0.00     0.071 H 
HETATM   11  H11 LIG     1      -9.436   2.737   0.630  1.00  0.00     0.071 H 
HETATM   12  H12 LIG     1      -9.795   0.968   0.418  1.00  0.00     0.071 H 
HETATM   13  H13 LIG     1      -7.767   2.554  -1.067  1.00  0.00     0.315 HD
HETATM   14  H14 LIG     1      -7.544   0.555   1.138  1.00  0.00     0.082 H 
HETATM   15  H15 LIG     1      -7.040   2.267   1.141  1.00  0.00     0.082 H 
HETATM   16  H16 LIG     1      -5.134   0.841   0.964  1.00  0.00     0.091 H 
HETATM   17  H17 LIG     1      -7.289  -1.375  -0.010  1.00  0.00     0.071 H 
HETATM   18  H18 LIG     1      -6.576  -2.050  -1.492  1.00  0.00     0.071 H 
HETATM   19  H19 LIG     1      -7.553  -0.553  -1.617  1.00  0.00     0.071 H 
HETATM   20  H20 LIG     1      -5.269  -0.570  -2.913  1.00  0.00     0.079 H 
HETATM   21  H21 LIG     1      -3.861  -0.080  -1.917  1.00  0.00     0.079 H 
HETATM   22  H22 LIG     1      -6.319   1.640  -2.522  1.00  0.00     0.035 H 
HETATM   23  H23 LIG     1      -4.623   2.015  -3.006  1.00  0.00     0.035 H 
HETATM   24  H24 LIG     1      -5.329   3.075  -0.619  1.00  0.00     0.036 H 
HETATM   25  H25 LIG     1      -3.923   1.960  -0.649  1.00  0.00     0.036 H 
ENDROOT
TORSDOF 4
ENDMDL
