MODEL 0
REMARK FAKE_HEAD_ATOM=C1_N1
REMARK REAL_HEAD_ATOM=C2_C3
REMARK DUMMY_ATOM=H1_H2_H3_C1_N1_H4
REMARK TORSION=H6_C2_C3_C4
ROOT
HETATM    1  C1  LIG     1      -8.285   1.242   1.034  1.00  0.00     0.094 C 
HETATM    2  N1  LIG     1      -6.952   1.094   0.450  1.00  0.00     0.084 N 
HETATM    3  C2  LIG     1      -5.911   1.286   1.464  1.00  0.00     0.150 C 
HETATM    4  C3  LIG     1      -4.562   1.016   0.862  1.00  0.00     0.062 A 
HETATM    5  C4  LIG     1      -3.570   2.009   0.839  1.00  0.00    -0.057 A 
HETATM    6  C5  LIG     1      -2.327   1.721   0.273  1.00  0.00    -0.080 A 
HETATM    7  C6  LIG     1      -2.085   0.455  -0.262  1.00  0.00    -0.066 A 
HETATM    8  C7  LIG     1      -3.093  -0.509  -0.222  1.00  0.00     0.003 A 
HETATM    9  N2  LIG     1      -4.298  -0.213   0.334  1.00  0.00    -0.264 NA
HETATM   10  H1  LIG     1      -9.050   1.081   0.246  1.00  0.00     0.071 H 
HETATM   11  H2  LIG     1      -8.421   2.261   1.457  1.00  0.00     0.071 H 
HETATM   12  H3  LIG     1      -8.445   0.481   1.828  1.00  0.00     0.071 H 
HETATM   13  H4  LIG     1      -6.836   1.817  -0.298  1.00  0.00     0.315 HD
HETATM   14  H5  LIG     1      -6.059   0.570   2.302  1.00  0.00     0.089 H 
HETATM   15  H6  LIG     1      -5.965   2.320   1.873  1.00  0.00     0.089 H 
HETATM   16  H7  LIG     1      -3.758   2.991   1.254  1.00  0.00     0.086 H 
HETATM   17  H8  LIG     1      -1.554   2.478   0.248  1.00  0.00     0.083 H 
HETATM   18  H9  LIG     1      -1.125   0.223  -0.704  1.00  0.00     0.085 H 
HETATM   19  H10 LIG     1      -2.918  -1.494  -0.633  1.00  0.00     0.114 H 
ENDROOT
TORSDOF 3
ENDMDL
