MODEL 0
REMARK FAKE_HEAD_ATOM=C5_N1
REMARK REAL_HEAD_ATOM=C4_C3
REMARK DUMMY_ATOM=H10_H11_H12_C5_N1_H9
REMARK TORSION=H8_C4_C3_C2
REMARK TORSION=C4_C3_C2_C1
REMARK TORSION=C4_C3_C6_C7
ROOT
HETATM    1  C1  LIG     1      -6.979   4.181   0.112  1.00  0.00    -0.076 C 
HETATM    2  C2  LIG     1      -5.694   3.579  -0.449  1.00  0.00    -0.063 C 
HETATM    3  C3  LIG     1      -5.534   2.029  -0.398  1.00  0.00    -0.020 C 
HETATM    4  C4  LIG     1      -6.591   1.238  -1.230  1.00  0.00     0.115 C 
HETATM    5  N1  LIG     1      -7.880   1.094  -0.534  1.00  0.00     0.079 N 
HETATM    6  C5  LIG     1      -8.784   0.224  -1.289  1.00  0.00     0.093 C 
HETATM    7  C6  LIG     1      -4.104   1.714  -0.924  1.00  0.00     0.018 C 
HETATM    8  C7  LIG     1      -3.629   0.298  -0.699  1.00  0.00     0.139 C 
HETATM    9  O1  LIG     1      -4.388  -0.595  -0.026  1.00  0.00    -0.776 OA
HETATM   10  O2  LIG     1      -2.524  -0.032  -1.102  1.00  0.00    -0.650 OA
HETATM   11  H1  LIG     1      -6.870   5.286   0.149  1.00  0.00     0.027 H 
HETATM   12  H2  LIG     1      -7.170   3.811   1.141  1.00  0.00     0.027 H 
HETATM   13  H3  LIG     1      -7.839   3.995  -0.554  1.00  0.00     0.027 H 
HETATM   14  H4  LIG     1      -4.871   4.011   0.165  1.00  0.00     0.033 H 
HETATM   15  H5  LIG     1      -5.564   3.945  -1.492  1.00  0.00     0.033 H 
HETATM   16  H6  LIG     1      -5.576   1.697   0.663  1.00  0.00     0.043 H 
HETATM   17  H7  LIG     1      -6.213   0.209  -1.391  1.00  0.00     0.080 H 
HETATM   18  H8  LIG     1      -6.712   1.693  -2.239  1.00  0.00     0.080 H 
HETATM   19  H9  LIG     1      -8.365   2.003  -0.428  1.00  0.00     0.315 HD
HETATM   20  H10 LIG     1      -8.352  -0.795  -1.392  1.00  0.00     0.071 H 
HETATM   21  H11 LIG     1      -8.987   0.647  -2.298  1.00  0.00     0.071 H 
HETATM   22  H12 LIG     1      -9.748   0.132  -0.746  1.00  0.00     0.071 H 
HETATM   23  H13 LIG     1      -3.365   2.359  -0.400  1.00  0.00     0.049 H 
HETATM   24  H14 LIG     1      -4.058   1.951  -2.010  1.00  0.00     0.049 H 
ENDROOT
TORSDOF 8
ENDMDL
