MODEL 0
REMARK FAKE_HEAD_ATOM=C1_N1
REMARK REAL_HEAD_ATOM=C2_C3
REMARK DUMMY_ATOM=H1_H2_H3_C1_N1_H4
REMARK TORSION=H6_C2_C3_C4
ROOT
HETATM    1  C1  LIG     1      -9.501   2.257   1.455  1.00  0.00     0.094 C 
HETATM    2  N1  LIG     1      -8.156   2.447   0.910  1.00  0.00     0.083 N 
HETATM    3  C2  LIG     1      -7.212   1.497   1.512  1.00  0.00     0.136 C 
HETATM    4  C3  LIG     1      -5.843   1.644   0.895  1.00  0.00    -0.013 A 
HETATM    5  C4  LIG     1      -5.256   0.578   0.193  1.00  0.00     0.009 A 
HETATM    6  N2  LIG     1      -4.019   0.718  -0.357  1.00  0.00    -0.273 NA
HETATM    7  C5  LIG     1      -3.318   1.878  -0.247  1.00  0.00     0.002 A 
HETATM    8  C6  LIG     1      -3.860   2.962   0.444  1.00  0.00    -0.066 A 
HETATM    9  C7  LIG     1      -5.127   2.845   1.018  1.00  0.00    -0.072 A 
HETATM   10  H1  LIG     1     -10.194   2.987   0.986  1.00  0.00     0.071 H 
HETATM   11  H2  LIG     1      -9.508   2.418   2.555  1.00  0.00     0.071 H 
HETATM   12  H3  LIG     1      -9.871   1.235   1.224  1.00  0.00     0.071 H 
HETATM   13  H4  LIG     1      -7.857   3.426   1.129  1.00  0.00     0.315 HD
HETATM   14  H5  LIG     1      -7.585   0.460   1.350  1.00  0.00     0.086 H 
HETATM   15  H6  LIG     1      -7.134   1.667   2.609  1.00  0.00     0.086 H 
HETATM   16  H7  LIG     1      -5.780  -0.362   0.083  1.00  0.00     0.115 H 
HETATM   17  H8  LIG     1      -2.336   1.957  -0.696  1.00  0.00     0.114 H 
HETATM   18  H9  LIG     1      -3.303   3.885   0.535  1.00  0.00     0.085 H 
HETATM   19  H10 LIG     1      -5.546   3.684   1.558  1.00  0.00     0.084 H 
ENDROOT
TORSDOF 3
ENDMDL
