MODEL 0
REMARK FAKE_HEAD_ATOM=C6_N5
REMARK REAL_HEAD_ATOM=C4_C3
REMARK DUMMY_ATOM=H18_H19_H20_C6_N5_H17
REMARK TORSION=H16_C4_C3_C2
REMARK TORSION=C4_C3_C2_C1
REMARK TORSION=C4_C3_C7_C8
ROOT
HETATM    1  C1  LIG     1       1.315   0.391  -0.511  1.00  0.00    -0.076 C 
HETATM    2  C2  LIG     1       2.535   0.409   0.432  1.00  0.00    -0.064 C 
HETATM    3  C3  LIG     1       3.299  -0.944   0.451  1.00  0.00    -0.029 C 
HETATM    4  C4  LIG     1       2.437  -2.138   0.947  1.00  0.00     0.114 C 
HETATM    5  N5  LIG     1       1.736  -1.860   2.217  1.00  0.00     0.079 N 
HETATM    6  C6  LIG     1       0.927  -3.004   2.674  1.00  0.00     0.093 C 
HETATM    7  C7  LIG     1       4.664  -0.836   1.190  1.00  0.00    -0.064 C 
HETATM    8  C8  LIG     1       4.586  -0.483   2.692  1.00  0.00    -0.076 C 
HETATM    9  H9  LIG     1       0.856   1.382  -0.548  1.00  0.00     0.027 H 
HETATM   10  H10 LIG     1       0.560  -0.317  -0.164  1.00  0.00     0.027 H 
HETATM   11  H11 LIG     1       1.614   0.115  -1.525  1.00  0.00     0.027 H 
HETATM   12  H12 LIG     1       2.205   0.683   1.437  1.00  0.00     0.033 H 
HETATM   13  H13 LIG     1       3.215   1.196   0.096  1.00  0.00     0.033 H 
HETATM   14  H14 LIG     1       3.555  -1.172  -0.587  1.00  0.00     0.042 H 
HETATM   15  H15 LIG     1       3.078  -3.017   1.067  1.00  0.00     0.080 H 
HETATM   16  H16 LIG     1       1.692  -2.372   0.181  1.00  0.00     0.080 H 
HETATM   17  H17 LIG     1       1.144  -1.038   2.109  1.00  0.00     0.315 HD
HETATM   18  H18 LIG     1       1.565  -3.880   2.820  1.00  0.00     0.071 H 
HETATM   19  H19 LIG     1       0.156  -3.237   1.935  1.00  0.00     0.071 H 
HETATM   20  H20 LIG     1       0.446  -2.754   3.624  1.00  0.00     0.071 H 
HETATM   21  H21 LIG     1       5.271  -0.076   0.691  1.00  0.00     0.033 H 
HETATM   22  H22 LIG     1       5.203  -1.780   1.082  1.00  0.00     0.033 H 
HETATM   23  H23 LIG     1       4.041   0.448   2.855  1.00  0.00     0.027 H 
HETATM   24  H24 LIG     1       5.593  -0.356   3.093  1.00  0.00     0.027 H 
HETATM   25  H25 LIG     1       4.104  -1.280   3.261  1.00  0.00     0.027 H 
ENDROOT
TORSDOF 7
ENDMDL
