MODEL 0
REMARK FAKE_HEAD_ATOM=C1_C2
REMARK REAL_HEAD_ATOM=C3_C4
REMARK DUMMY_ATOM=H13_H14_H15_C1_H16_H17_C2
REMARK TORSION=H18_C3_C4_C5
ROOT
HETATM    1  C1  LIG     1       0.926   0.012   0.037  1.00  0.00    -0.076 C 
HETATM    2  C2  LIG     1       2.449   0.055  -0.046  1.00  0.00    -0.065 C 
HETATM    3  C3  LIG     1       2.944  -0.470  -1.401  1.00  0.00    -0.041 C 
HETATM    4  C4  LIG     1       4.451  -0.442  -1.491  1.00  0.00    -0.057 A 
HETATM    5  C5  LIG     1       5.142   0.779  -1.428  1.00  0.00    -0.077 A 
HETATM    6  C6  LIG     1       6.535   0.804  -1.515  1.00  0.00    -0.081 A 
HETATM    7  C7  LIG     1       7.253  -0.385  -1.667  1.00  0.00    -0.066 A 
HETATM    8  C8  LIG     1       6.579  -1.617  -1.735  1.00  0.00     0.041 A 
HETATM    9  C9  LIG     1       7.344  -2.879  -1.899  1.00  0.00     0.209 C 
HETATM   10  O10 LIG     1       8.689  -2.853  -1.982  1.00  0.00    -0.644 OA
HETATM   11  O11 LIG     1       6.763  -3.951  -1.959  1.00  0.00    -0.644 OA
HETATM   12  C12 LIG     1       5.174  -1.637  -1.648  1.00  0.00    -0.060 A 
HETATM   13  H13 LIG     1       0.597   0.393   1.027  1.00  0.00     0.027 H 
HETATM   14  H14 LIG     1       0.561  -1.030  -0.081  1.00  0.00     0.027 H 
HETATM   15  H15 LIG     1       0.478   0.649  -0.756  1.00  0.00     0.027 H 
HETATM   16  H16 LIG     1       2.871  -0.572   0.770  1.00  0.00     0.032 H 
HETATM   17  H17 LIG     1       2.780   1.105   0.104  1.00  0.00     0.032 H 
HETATM   18  H18 LIG     1       2.523   0.145  -2.226  1.00  0.00     0.040 H 
HETATM   19  H19 LIG     1       2.572  -1.511  -1.528  1.00  0.00     0.040 H 
HETATM   20  H20 LIG     1       4.602   1.710  -1.315  1.00  0.00     0.084 H 
HETATM   21  H21 LIG     1       7.061   1.748  -1.466  1.00  0.00     0.083 H 
HETATM   22  H22 LIG     1       8.333  -0.342  -1.732  1.00  0.00     0.085 H 
HETATM   23  H23 LIG     1       4.644  -2.580  -1.700  1.00  0.00     0.086 H 
ENDROOT
TORSDOF 4
ENDMDL
