MODEL 0
REMARK FAKE_HEAD_ATOM=C1_C2
REMARK REAL_HEAD_ATOM=C3_C4
REMARK DUMMY_ATOM=H13_H14_H15_C1_H16_H17_C2
REMARK TORSION=H18_C3_C4_C5
ROOT
HETATM    1  C1  LIG     1       1.221  -1.031  -0.081  1.00  0.00    -0.076 C 
HETATM    2  C2  LIG     1       2.744  -0.940  -0.082  1.00  0.00    -0.065 C 
HETATM    3  C3  LIG     1       3.253  -0.201  -1.332  1.00  0.00    -0.040 C 
HETATM    4  C4  LIG     1       4.767  -0.095  -1.340  1.00  0.00    -0.041 A 
HETATM    5  C5  LIG     1       5.332   1.173  -1.093  1.00  0.00    -0.076 A 
HETATM    6  C6  LIG     1       6.713   1.348  -1.057  1.00  0.00    -0.082 A 
HETATM    7  C7  LIG     1       7.560   0.267  -1.268  1.00  0.00    -0.082 A 
HETATM    8  C8  LIG     1       7.032  -0.997  -1.527  1.00  0.00    -0.066 A 
HETATM    9  C9  LIG     1       5.638  -1.209  -1.576  1.00  0.00     0.047 A 
HETATM   10  C10 LIG     1       5.158  -2.590  -1.906  1.00  0.00     0.209 C 
HETATM   11  O11 LIG     1       6.047  -3.593  -2.054  1.00  0.00    -0.644 OA
HETATM   12  O12 LIG     1       3.977  -2.827  -2.094  1.00  0.00    -0.644 OA
HETATM   13  H13 LIG     1       0.879  -1.552   0.838  1.00  0.00     0.027 H 
HETATM   14  H14 LIG     1       0.870  -1.603  -0.967  1.00  0.00     0.027 H 
HETATM   15  H15 LIG     1       0.771  -0.015  -0.101  1.00  0.00     0.027 H 
HETATM   16  H16 LIG     1       3.155  -1.966  -0.013  1.00  0.00     0.032 H 
HETATM   17  H17 LIG     1       3.071  -0.386   0.825  1.00  0.00     0.032 H 
HETATM   18  H18 LIG     1       2.802   0.816  -1.297  1.00  0.00     0.040 H 
HETATM   19  H19 LIG     1       2.897  -0.661  -2.278  1.00  0.00     0.040 H 
HETATM   20  H20 LIG     1       4.696   2.032  -0.915  1.00  0.00     0.084 H 
HETATM   21  H21 LIG     1       7.129   2.328  -0.860  1.00  0.00     0.083 H 
HETATM   22  H22 LIG     1       8.633   0.408  -1.239  1.00  0.00     0.083 H 
HETATM   23  H23 LIG     1       7.721  -1.814  -1.701  1.00  0.00     0.085 H 
ENDROOT
TORSDOF 4
ENDMDL
