MODEL 0
REMARK FAKE_HEAD_ATOM=C11_N10
REMARK REAL_HEAD_ATOM=C9_C8
REMARK DUMMY_ATOM=H25_H26_H27_C11_N10_H24
REMARK TORSION=H23_C9_C8_C7
ROOT
HETATM    1  C1  LIG     1      -7.999   1.733  -0.080  1.00  0.00    -0.051 C 
HETATM    2  C2  LIG     1      -6.499   1.752  -0.034  1.00  0.00    -0.061 A 
HETATM    3  C3  LIG     1      -5.799   2.969  -0.037  1.00  0.00    -0.075 A 
HETATM    4  C4  LIG     1      -4.402   2.978   0.001  1.00  0.00    -0.049 A 
HETATM    5  C5  LIG     1      -3.690   1.776   0.041  1.00  0.00     0.089 A 
HETATM    6  O6  LIG     1      -2.361   1.799   0.070  1.00  0.00    -0.321 OA
HETATM    7  C7  LIG     1      -1.625   0.693   0.102  1.00  0.00     0.031 A 
HETATM    8  C8  LIG     1      -2.232  -0.579   0.112  1.00  0.00     0.043 A 
HETATM    9  C9  LIG     1      -1.424  -1.865   0.138  1.00  0.00     0.140 C 
HETATM   10  N10 LIG     1       0.026  -1.633   0.148  1.00  0.00     0.083 N 
HETATM   11  C11 LIG     1       0.754  -2.897   0.031  1.00  0.00     0.094 C 
HETATM   12  C12 LIG     1      -3.637  -0.643   0.085  1.00  0.00     0.194 A 
HETATM   13  O13 LIG     1      -4.201  -1.727   0.091  1.00  0.00    -0.287 OA
HETATM   14  C14 LIG     1      -4.383   0.547   0.047  1.00  0.00     0.049 A 
HETATM   15  C15 LIG     1      -5.790   0.543   0.010  1.00  0.00    -0.061 A 
HETATM   16  H16 LIG     1      -8.421   2.760  -0.116  1.00  0.00     0.033 H 
HETATM   17  H17 LIG     1      -8.395   1.221   0.822  1.00  0.00     0.033 H 
HETATM   18  H18 LIG     1      -8.336   1.185  -0.985  1.00  0.00     0.033 H 
HETATM   19  H19 LIG     1      -6.335   3.909  -0.071  1.00  0.00     0.084 H 
HETATM   20  H20 LIG     1      -3.872   3.923  -0.004  1.00  0.00     0.087 H 
HETATM   21  H21 LIG     1      -0.549   0.795   0.117  1.00  0.00     0.124 H 
HETATM   22  H22 LIG     1      -1.697  -2.447  -0.770  1.00  0.00     0.087 H 
HETATM   23  H23 LIG     1      -1.713  -2.454   1.038  1.00  0.00     0.087 H 
HETATM   24  H24 LIG     1       0.294  -1.192   1.059  1.00  0.00     0.315 HD
HETATM   25  H25 LIG     1       0.501  -3.403  -0.925  1.00  0.00     0.071 H 
HETATM   26  H26 LIG     1       0.516  -3.571   0.883  1.00  0.00     0.071 H 
HETATM   27  H27 LIG     1       1.846  -2.695   0.033  1.00  0.00     0.071 H 
HETATM   28  H28 LIG     1      -6.336  -0.394   0.012  1.00  0.00     0.086 H 
ENDROOT
TORSDOF 4
ENDMDL
