MODEL 0
REMARK FAKE_HEAD_ATOM=C1_N2
REMARK REAL_HEAD_ATOM=C3_C4
REMARK DUMMY_ATOM=H12_H13_H14_C1_H15_N2
REMARK TORSION=H16_C3_C4_C5
REMARK TORSION=C3_C4_C5_C6
REMARK TORSION=C4_C5_C6_C7
ROOT
HETATM    1  C1  LIG     1       0.788   0.067  -0.185  1.00  0.00     0.093 C 
HETATM    2  N2  LIG     1       2.245   0.118  -0.302  1.00  0.00     0.079 N 
HETATM    3  C3  LIG     1       2.799  -1.229  -0.479  1.00  0.00     0.111 C 
HETATM    4  C4  LIG     1       4.322  -1.157  -0.628  1.00  0.00    -0.037 C 
HETATM    5  C5  LIG     1       4.927  -2.556  -0.803  1.00  0.00    -0.039 C 
HETATM    6  C6  LIG     1       6.431  -2.496  -0.923  1.00  0.00    -0.058 A 
HETATM    7  C7  LIG     1       7.244  -3.111   0.046  1.00  0.00    -0.077 A 
HETATM    8  C8  LIG     1       8.637  -3.055  -0.065  1.00  0.00    -0.082 A 
HETATM    9  C9  LIG     1       9.228  -2.391  -1.143  1.00  0.00    -0.083 A 
HETATM   10  C10 LIG     1       8.428  -1.782  -2.113  1.00  0.00    -0.082 A 
HETATM   11  C11 LIG     1       7.034  -1.833  -2.006  1.00  0.00    -0.077 A 
HETATM   12  H12 LIG     1       0.394   1.097  -0.048  1.00  0.00     0.071 H 
HETATM   13  H13 LIG     1       0.482  -0.546   0.691  1.00  0.00     0.071 H 
HETATM   14  H14 LIG     1       0.339  -0.353  -1.111  1.00  0.00     0.071 H 
HETATM   15  H15 LIG     1       2.628   0.531   0.580  1.00  0.00     0.315 HD
HETATM   16  H16 LIG     1       2.371  -1.693  -1.396  1.00  0.00     0.079 H 
HETATM   17  H17 LIG     1       2.544  -1.864   0.400  1.00  0.00     0.079 H 
HETATM   18  H18 LIG     1       4.755  -0.687   0.283  1.00  0.00     0.035 H 
HETATM   19  H19 LIG     1       4.566  -0.521  -1.507  1.00  0.00     0.035 H 
HETATM   20  H20 LIG     1       4.511  -3.044  -1.711  1.00  0.00     0.040 H 
HETATM   21  H21 LIG     1       4.640  -3.172   0.078  1.00  0.00     0.040 H 
HETATM   22  H22 LIG     1       6.800  -3.629   0.887  1.00  0.00     0.084 H 
HETATM   23  H23 LIG     1       9.258  -3.527   0.685  1.00  0.00     0.083 H 
HETATM   24  H24 LIG     1      10.306  -2.350  -1.227  1.00  0.00     0.083 H 
HETATM   25  H25 LIG     1       8.887  -1.270  -2.948  1.00  0.00     0.083 H 
HETATM   26  H26 LIG     1       6.426  -1.360  -2.767  1.00  0.00     0.084 H 
ENDROOT
TORSDOF 5
ENDMDL
