MODEL 0
REMARK FAKE_HEAD_ATOM=C1_C2
REMARK REAL_HEAD_ATOM=C3_C4
REMARK DUMMY_ATOM=C1_H13_H14_H15_C2_H16_H17
REMARK TORSION=H19_C3_C4_C5
ROOT
HETATM    1  C1  LIG     1       0.953  -0.085  -0.031  1.00  0.00    -0.076 C 
HETATM    2  C2  LIG     1       2.476  -0.120  -0.118  1.00  0.00    -0.065 C 
HETATM    3  C3  LIG     1       3.081  -0.865   1.081  1.00  0.00    -0.041 C 
HETATM    4  C4  LIG     1       4.589  -0.914   1.000  1.00  0.00    -0.056 A 
HETATM    5  C5  LIG     1       5.340   0.271   1.036  1.00  0.00    -0.077 A 
HETATM    6  C6  LIG     1       6.733   0.225   0.965  1.00  0.00    -0.080 A 
HETATM    7  C7  LIG     1       7.392  -1.002   0.859  1.00  0.00    -0.051 A 
HETATM    8  C8  LIG     1       6.660  -2.203   0.825  1.00  0.00     0.103 A 
HETATM    9  N9  LIG     1       7.336  -3.457   0.718  1.00  0.00    -0.116 N 
HETATM   10  O10 LIG     1       8.650  -3.501   0.651  1.00  0.00    -0.532 OA
HETATM   11  O11 LIG     1       6.717  -4.478   0.689  1.00  0.00    -0.532 OA
HETATM   12  C12 LIG     1       5.253  -2.149   0.897  1.00  0.00    -0.045 A 
HETATM   13  H13 LIG     1       0.543   0.455  -0.910  1.00  0.00     0.027 H 
HETATM   14  H14 LIG     1       0.632   0.443   0.892  1.00  0.00     0.027 H 
HETATM   15  H15 LIG     1       0.542  -1.116  -0.023  1.00  0.00     0.027 H 
HETATM   16  H16 LIG     1       2.851   0.925  -0.151  1.00  0.00     0.032 H 
HETATM   17  H17 LIG     1       2.771  -0.634  -1.059  1.00  0.00     0.032 H 
HETATM   18  H18 LIG     1       2.665  -1.896   1.097  1.00  0.00     0.040 H 
HETATM   19  H19 LIG     1       2.789  -0.363   2.029  1.00  0.00     0.040 H 
HETATM   20  H20 LIG     1       4.846   1.231   1.122  1.00  0.00     0.084 H 
HETATM   21  H21 LIG     1       7.305   1.143   0.994  1.00  0.00     0.083 H 
HETATM   22  H22 LIG     1       8.473  -1.014   0.806  1.00  0.00     0.087 H 
HETATM   23  H23 LIG     1       4.676  -3.065   0.872  1.00  0.00     0.088 H 
ENDROOT
TORSDOF 4
ENDMDL
