MODEL 0
REMARK FAKE_HEAD_ATOM=C1_C2
REMARK REAL_HEAD_ATOM=C3_C4
REMARK DUMMY_ATOM=H13_H14_H15_C1_H16_H17_C2
REMARK TORSION=H18_C3_C4_C5
ROOT
HETATM    1  C1  LIG     1      -5.810   0.351   0.204  1.00  0.00    -0.076 C 
HETATM    2  C2  LIG     1      -4.286   0.419   0.166  1.00  0.00    -0.065 C 
HETATM    3  C3  LIG     1      -3.801   1.296  -0.997  1.00  0.00    -0.041 C 
HETATM    4  C4  LIG     1      -2.294   1.378  -1.044  1.00  0.00    -0.058 A 
HETATM    5  C5  LIG     1      -1.646   2.613  -0.882  1.00  0.00    -0.076 A 
HETATM    6  C6  LIG     1      -0.252   2.692  -0.932  1.00  0.00    -0.066 A 
HETATM    7  C7  LIG     1       0.519   1.536  -1.147  1.00  0.00     0.040 A 
HETATM    8  C8  LIG     1       2.000   1.623  -1.202  1.00  0.00     0.209 C 
HETATM    9  O9  LIG     1       2.618   2.811  -1.046  1.00  0.00    -0.644 OA
HETATM   10  O10 LIG     1       2.672   0.621  -1.389  1.00  0.00    -0.644 OA
HETATM   11  C11 LIG     1      -0.131   0.300  -1.311  1.00  0.00    -0.066 A 
HETATM   12  C12 LIG     1      -1.526   0.223  -1.261  1.00  0.00    -0.076 A 
HETATM   13  H13 LIG     1      -6.134  -0.286   1.054  1.00  0.00     0.027 H 
HETATM   14  H14 LIG     1      -6.199  -0.090  -0.739  1.00  0.00     0.027 H 
HETATM   15  H15 LIG     1      -6.240   1.366   0.336  1.00  0.00     0.027 H 
HETATM   16  H16 LIG     1      -3.891  -0.613   0.061  1.00  0.00     0.032 H 
HETATM   17  H17 LIG     1      -3.921   0.844   1.127  1.00  0.00     0.032 H 
HETATM   18  H18 LIG     1      -4.236   2.312  -0.874  1.00  0.00     0.040 H 
HETATM   19  H19 LIG     1      -4.167   0.883  -1.962  1.00  0.00     0.040 H 
HETATM   20  H20 LIG     1      -2.221   3.516  -0.717  1.00  0.00     0.084 H 
HETATM   21  H21 LIG     1       0.225   3.655  -0.804  1.00  0.00     0.085 H 
HETATM   22  H22 LIG     1       0.440  -0.604  -1.480  1.00  0.00     0.085 H 
HETATM   23  H23 LIG     1      -2.007  -0.738  -1.396  1.00  0.00     0.084 H 
ENDROOT
TORSDOF 4
ENDMDL
