MODEL 0
REMARK FAKE_HEAD_ATOM=C1_C2
REMARK REAL_HEAD_ATOM=C3_C4
REMARK DUMMY_ATOM=C1_H13_H14_H15_C2_H16_H17
REMARK TORSION=H19_C3_C4_C5
ROOT
HETATM    1  C1  LIG     1       2.124  -0.243   1.312  1.00  0.00    -0.076 C 
HETATM    2  C2  LIG     1       1.949   0.529   0.003  1.00  0.00    -0.065 C 
HETATM    3  C3  LIG     1       2.856   1.774  -0.065  1.00  0.00    -0.039 C 
HETATM    4  C4  LIG     1       4.337   1.434  -0.013  1.00  0.00    -0.025 A 
HETATM    5  C5  LIG     1       5.035   1.775   1.164  1.00  0.00    -0.074 A 
HETATM    6  C6  LIG     1       6.386   1.471   1.312  1.00  0.00    -0.082 A 
HETATM    7  C7  LIG     1       7.071   0.823   0.293  1.00  0.00    -0.081 A 
HETATM    8  C8  LIG     1       6.415   0.482  -0.887  1.00  0.00    -0.050 A 
HETATM    9  C9  LIG     1       5.047   0.781  -1.077  1.00  0.00     0.109 A 
HETATM   10  N10 LIG     1       4.444   0.438  -2.337  1.00  0.00    -0.115 N 
HETATM   11  O11 LIG     1       5.141  -0.216  -3.242  1.00  0.00    -0.532 OA
HETATM   12  O12 LIG     1       3.353   0.823  -2.626  1.00  0.00    -0.532 OA
HETATM   13  H13 LIG     1       1.426  -1.106   1.330  1.00  0.00     0.027 H 
HETATM   14  H14 LIG     1       1.901   0.413   2.180  1.00  0.00     0.027 H 
HETATM   15  H15 LIG     1       3.161  -0.630   1.404  1.00  0.00     0.027 H 
HETATM   16  H16 LIG     1       0.891   0.864  -0.063  1.00  0.00     0.032 H 
HETATM   17  H17 LIG     1       2.137  -0.167  -0.837  1.00  0.00     0.032 H 
HETATM   18  H18 LIG     1       2.574   2.410   0.803  1.00  0.00     0.040 H 
HETATM   19  H19 LIG     1       2.639   2.390  -0.962  1.00  0.00     0.040 H 
HETATM   20  H20 LIG     1       4.524   2.271   1.980  1.00  0.00     0.084 H 
HETATM   21  H21 LIG     1       6.902   1.737   2.226  1.00  0.00     0.083 H 
HETATM   22  H22 LIG     1       8.121   0.587   0.414  1.00  0.00     0.083 H 
HETATM   23  H23 LIG     1       6.984  -0.011  -1.665  1.00  0.00     0.087 H 
ENDROOT
TORSDOF 4
ENDMDL
