MODEL 0
REMARK FAKE_HEAD_ATOM=C1_C2
REMARK REAL_HEAD_ATOM=C3_C4
REMARK DUMMY_ATOM=C1_H14_H15_H16_C2_H17_H18
REMARK TORSION=H19_C3_C4_C5
REMARK TORSION=C8_C9_C10_C11
ROOT
HETATM    1  C1  LIG     1       0.796   0.753   1.114  1.00  0.00    -0.076 C 
HETATM    2  C2  LIG     1       2.319   0.699   1.020  1.00  0.00    -0.065 C 
HETATM    3  C3  LIG     1       2.803   1.180  -0.357  1.00  0.00    -0.041 C 
HETATM    4  C4  LIG     1       4.320   1.194  -0.468  1.00  0.00    -0.051 A 
HETATM    5  C5  LIG     1       4.973   2.441  -0.405  1.00  0.00    -0.076 A 
HETATM    6  C6  LIG     1       6.362   2.528  -0.472  1.00  0.00    -0.082 A 
HETATM    7  C7  LIG     1       7.129   1.375  -0.606  1.00  0.00    -0.082 A 
HETATM    8  C8  LIG     1       6.511   0.128  -0.685  1.00  0.00    -0.076 A 
HETATM    9  C9  LIG     1       5.108   0.010  -0.628  1.00  0.00    -0.042 A 
HETATM   10  C10 LIG     1       4.506  -1.378  -0.769  1.00  0.00     0.040 C 
HETATM   11  C11 LIG     1       3.730  -1.563  -2.048  1.00  0.00     0.176 C 
HETATM   12  O12 LIG     1       3.655  -0.577  -2.965  1.00  0.00    -0.648 OA
HETATM   13  O13 LIG     1       3.190  -2.634  -2.274  1.00  0.00    -0.648 OA
HETATM   14  H14 LIG     1       0.472   0.417   2.122  1.00  0.00     0.027 H 
HETATM   15  H15 LIG     1       0.340   0.085   0.353  1.00  0.00     0.027 H 
HETATM   16  H16 LIG     1       0.433   1.791   0.954  1.00  0.00     0.027 H 
HETATM   17  H17 LIG     1       2.634  -0.336   1.232  1.00  0.00     0.032 H 
HETATM   18  H18 LIG     1       2.749   1.356   1.808  1.00  0.00     0.032 H 
HETATM   19  H19 LIG     1       2.420   2.219  -0.469  1.00  0.00     0.040 H 
HETATM   20  H20 LIG     1       2.348   0.596  -1.180  1.00  0.00     0.040 H 
HETATM   21  H21 LIG     1       4.401   3.354  -0.290  1.00  0.00     0.084 H 
HETATM   22  H22 LIG     1       6.847   3.494  -0.415  1.00  0.00     0.083 H 
HETATM   23  H23 LIG     1       8.208   1.447  -0.656  1.00  0.00     0.083 H 
HETATM   24  H24 LIG     1       7.131  -0.752  -0.804  1.00  0.00     0.084 H 
HETATM   25  H25 LIG     1       3.875  -1.619   0.102  1.00  0.00     0.056 H 
HETATM   26  H26 LIG     1       5.310  -2.146  -0.785  1.00  0.00     0.056 H 
ENDROOT
TORSDOF 5
ENDMDL
