MODEL 0
REMARK FAKE_HEAD_ATOM=C1_C2
REMARK REAL_HEAD_ATOM=C3_C4
REMARK DUMMY_ATOM=C1_H13_H14_H15_C2_H16_H17
REMARK TORSION=H19_C3_C4_C5
ROOT
HETATM    1  C1  LIG     1       1.021   0.064   0.117  1.00  0.00    -0.076 C 
HETATM    2  C2  LIG     1       2.541   0.129   0.001  1.00  0.00    -0.065 C 
HETATM    3  C3  LIG     1       3.028  -0.570  -1.277  1.00  0.00    -0.041 C 
HETATM    4  C4  LIG     1       4.532  -0.520  -1.398  1.00  0.00    -0.058 A 
HETATM    5  C5  LIG     1       5.196   0.712  -1.518  1.00  0.00    -0.074 A 
HETATM    6  C6  LIG     1       6.588   0.757  -1.634  1.00  0.00    -0.051 A 
HETATM    7  C7  LIG     1       7.344  -0.429  -1.634  1.00  0.00     0.102 A 
HETATM    8  N8  LIG     1       8.766  -0.380  -1.754  1.00  0.00    -0.116 N 
HETATM    9  O9  LIG     1       9.385   0.776  -1.863  1.00  0.00    -0.532 OA
HETATM   10  O10 LIG     1       9.408  -1.388  -1.755  1.00  0.00    -0.532 OA
HETATM   11  C11 LIG     1       6.675  -1.663  -1.518  1.00  0.00    -0.051 A 
HETATM   12  C12 LIG     1       5.282  -1.707  -1.402  1.00  0.00    -0.074 A 
HETATM   13  H13 LIG     1       0.697   0.572   1.049  1.00  0.00     0.027 H 
HETATM   14  H14 LIG     1       0.680  -0.993   0.151  1.00  0.00     0.027 H 
HETATM   15  H15 LIG     1       0.546   0.573  -0.749  1.00  0.00     0.027 H 
HETATM   16  H16 LIG     1       2.991  -0.368   0.888  1.00  0.00     0.032 H 
HETATM   17  H17 LIG     1       2.848   1.196  -0.003  1.00  0.00     0.032 H 
HETATM   18  H18 LIG     1       2.580  -0.085  -2.171  1.00  0.00     0.040 H 
HETATM   19  H19 LIG     1       2.681  -1.626  -1.251  1.00  0.00     0.040 H 
HETATM   20  H20 LIG     1       4.634   1.637  -1.524  1.00  0.00     0.084 H 
HETATM   21  H21 LIG     1       7.075   1.720  -1.725  1.00  0.00     0.087 H 
HETATM   22  H22 LIG     1       7.230  -2.592  -1.516  1.00  0.00     0.087 H 
HETATM   23  H23 LIG     1       4.789  -2.667  -1.313  1.00  0.00     0.084 H 
ENDROOT
TORSDOF 4
ENDMDL
