MODEL 0
REMARK FAKE_HEAD_ATOM=C1_C2
REMARK REAL_HEAD_ATOM=C3_C4
REMARK DUMMY_ATOM=C1_H14_H15_H16_C2_H17_H18
REMARK TORSION=H19_C3_C4_C5
REMARK TORSION=C7_C8_C9_C10
ROOT
HETATM    1  C1  LIG     1       1.856   0.224  -0.600  1.00  0.00    -0.076 C 
HETATM    2  C2  LIG     1       1.751  -0.442   0.772  1.00  0.00    -0.065 C 
HETATM    3  C3  LIG     1       2.700   0.193   1.801  1.00  0.00    -0.041 C 
HETATM    4  C4  LIG     1       4.158   0.037   1.431  1.00  0.00    -0.058 A 
HETATM    5  C5  LIG     1       4.946   1.171   1.190  1.00  0.00    -0.077 A 
HETATM    6  C6  LIG     1       6.290   1.031   0.854  1.00  0.00    -0.082 A 
HETATM    7  C7  LIG     1       6.861  -0.238   0.757  1.00  0.00    -0.076 A 
HETATM    8  C8  LIG     1       6.099  -1.397   0.996  1.00  0.00    -0.048 A 
HETATM    9  C9  LIG     1       6.829  -2.733   0.867  1.00  0.00     0.039 C 
HETATM   10  C10 LIG     1       6.147  -4.070   1.084  1.00  0.00     0.176 C 
HETATM   11  O11 LIG     1       4.846  -4.183   1.398  1.00  0.00    -0.648 OA
HETATM   12  O12 LIG     1       6.810  -5.088   0.965  1.00  0.00    -0.648 OA
HETATM   13  C13 LIG     1       4.734  -1.243   1.336  1.00  0.00    -0.070 A 
HETATM   14  H14 LIG     1       1.133  -0.249  -1.298  1.00  0.00     0.027 H 
HETATM   15  H15 LIG     1       2.877   0.105  -1.019  1.00  0.00     0.027 H 
HETATM   16  H16 LIG     1       1.617   1.306  -0.522  1.00  0.00     0.027 H 
HETATM   17  H17 LIG     1       1.959  -1.528   0.672  1.00  0.00     0.032 H 
HETATM   18  H18 LIG     1       0.708  -0.326   1.138  1.00  0.00     0.032 H 
HETATM   19  H19 LIG     1       2.537  -0.285   2.791  1.00  0.00     0.040 H 
HETATM   20  H20 LIG     1       2.433   1.268   1.903  1.00  0.00     0.040 H 
HETATM   21  H21 LIG     1       4.518   2.163   1.262  1.00  0.00     0.084 H 
HETATM   22  H22 LIG     1       6.893   1.910   0.667  1.00  0.00     0.083 H 
HETATM   23  H23 LIG     1       7.909  -0.322   0.495  1.00  0.00     0.084 H 
HETATM   24  H24 LIG     1       7.678  -2.699   1.584  1.00  0.00     0.056 H 
HETATM   25  H25 LIG     1       7.251  -2.767  -0.161  1.00  0.00     0.056 H 
HETATM   26  H26 LIG     1       4.102  -2.083   1.536  1.00  0.00     0.085 H 
ENDROOT
TORSDOF 5
ENDMDL
