MODEL 0
REMARK FAKE_HEAD_ATOM=C6_N5
REMARK REAL_HEAD_ATOM=C4_C3
REMARK DUMMY_ATOM=H18_H19_H20_C6_N5_H17
REMARK TORSION=H15_C4_C3_C2
ROOT
HETATM    1  O1  LIG     1      -6.341  -0.832  -0.492  1.00  0.00    -0.287 OA
HETATM    2  C2  LIG     1      -5.778   0.217  -0.220  1.00  0.00     0.194 A 
HETATM    3  C3  LIG     1      -6.532   1.382   0.010  1.00  0.00     0.043 A 
HETATM    4  C4  LIG     1      -8.048   1.324  -0.074  1.00  0.00     0.140 C 
HETATM    5  N5  LIG     1      -8.690   2.614   0.207  1.00  0.00     0.083 N 
HETATM    6  C6  LIG     1     -10.146   2.471   0.251  1.00  0.00     0.094 C 
HETATM    7  C7  LIG     1      -5.840   2.570   0.322  1.00  0.00     0.031 A 
HETATM    8  O8  LIG     1      -4.512   2.587   0.395  1.00  0.00    -0.321 OA
HETATM    9  C9  LIG     1      -3.769   1.505   0.186  1.00  0.00     0.089 A 
HETATM   10  C10 LIG     1      -2.375   1.591   0.284  1.00  0.00    -0.049 A 
HETATM   11  C11 LIG     1      -1.585   0.458   0.070  1.00  0.00    -0.080 A 
HETATM   12  C12 LIG     1      -2.182  -0.766  -0.243  1.00  0.00    -0.082 A 
HETATM   13  C13 LIG     1      -3.572  -0.865  -0.345  1.00  0.00    -0.066 A 
HETATM   14  C14 LIG     1      -4.378   0.271  -0.132  1.00  0.00     0.048 A 
HETATM   15  H15 LIG     1      -8.392   0.572   0.671  1.00  0.00     0.087 H 
HETATM   16  H16 LIG     1      -8.339   0.976  -1.091  1.00  0.00     0.087 H 
HETATM   17  H17 LIG     1      -8.457   3.285  -0.562  1.00  0.00     0.315 HD
HETATM   18  H18 LIG     1     -10.442   1.760   1.051  1.00  0.00     0.071 H 
HETATM   19  H19 LIG     1     -10.538   2.116  -0.728  1.00  0.00     0.071 H 
HETATM   20  H20 LIG     1     -10.606   3.454   0.480  1.00  0.00     0.071 H 
HETATM   21  H21 LIG     1      -6.373   3.490   0.512  1.00  0.00     0.124 H 
HETATM   22  H22 LIG     1      -1.906   2.536   0.527  1.00  0.00     0.087 H 
HETATM   23  H23 LIG     1      -0.508   0.529   0.149  1.00  0.00     0.083 H 
HETATM   24  H24 LIG     1      -1.565  -1.640  -0.406  1.00  0.00     0.083 H 
HETATM   25  H25 LIG     1      -4.016  -1.822  -0.589  1.00  0.00     0.085 H 
ENDROOT
TORSDOF 3
ENDMDL
