MODEL 0
REMARK FAKE_HEAD_ATOM=C1_N2
REMARK REAL_HEAD_ATOM=C3_C4
REMARK DUMMY_ATOM=H11_H12_H13_C1_H14_N2
REMARK TORSION=H15_C3_C4_C5
REMARK TORSION=C3_C4_C5_C6
ROOT
HETATM    1  C1  LIG     1       0.923  -0.163   0.120  1.00  0.00     0.093 C 
HETATM    2  N2  LIG     1       2.378  -0.013   0.067  1.00  0.00     0.079 N 
HETATM    3  C3  LIG     1       2.757   1.403   0.125  1.00  0.00     0.114 C 
HETATM    4  C4  LIG     1       4.286   1.539   0.117  1.00  0.00    -0.016 C 
HETATM    5  C5  LIG     1       4.823   2.957   0.183  1.00  0.00    -0.057 A 
HETATM    6  C6  LIG     1       3.987   4.094   0.246  1.00  0.00    -0.077 A 
HETATM    7  C7  LIG     1       4.543   5.376   0.304  1.00  0.00    -0.082 A 
HETATM    8  C8  LIG     1       5.930   5.541   0.300  1.00  0.00    -0.083 A 
HETATM    9  C9  LIG     1       6.765   4.425   0.238  1.00  0.00    -0.082 A 
HETATM   10  C10 LIG     1       6.217   3.141   0.180  1.00  0.00    -0.077 A 
HETATM   11  H11 LIG     1       0.662  -1.241   0.073  1.00  0.00     0.071 H 
HETATM   12  H12 LIG     1       0.441   0.354  -0.739  1.00  0.00     0.071 H 
HETATM   13  H13 LIG     1       0.526   0.247   1.073  1.00  0.00     0.071 H 
HETATM   14  H14 LIG     1       2.715  -0.421  -0.837  1.00  0.00     0.315 HD
HETATM   15  H15 LIG     1       2.363   1.851   1.065  1.00  0.00     0.079 H 
HETATM   16  H16 LIG     1       2.332   1.942  -0.752  1.00  0.00     0.079 H 
HETATM   17  H17 LIG     1       4.674   1.069  -0.812  1.00  0.00     0.042 H 
HETATM   18  H18 LIG     1       4.688   0.976   0.989  1.00  0.00     0.042 H 
HETATM   19  H19 LIG     1       2.910   4.003   0.251  1.00  0.00     0.084 H 
HETATM   20  H20 LIG     1       3.897   6.243   0.352  1.00  0.00     0.083 H 
HETATM   21  H21 LIG     1       6.356   6.535   0.344  1.00  0.00     0.083 H 
HETATM   22  H22 LIG     1       7.840   4.554   0.234  1.00  0.00     0.083 H 
HETATM   23  H23 LIG     1       6.878   2.284   0.132  1.00  0.00     0.084 H 
ENDROOT
TORSDOF 4
ENDMDL
