MODEL 0
REMARK FAKE_HEAD_ATOM=C1_N2
REMARK REAL_HEAD_ATOM=C3_C4
REMARK DUMMY_ATOM=H12_H13_H14_C1_N2_H15
REMARK TORSION=H16_C3_C4_C5
REMARK TORSION=C4_C5_C6_C7
ROOT
HETATM    1  C1  LIG     1      -8.522   0.889   1.436  1.00  0.00     0.094 C 
HETATM    2  N2  LIG     1      -7.146   0.613   1.022  1.00  0.00     0.082 N 
HETATM    3  C3  LIG     1      -6.199   1.418   1.800  1.00  0.00     0.126 C 
HETATM    4  C4  LIG     1      -4.786   1.089   1.403  1.00  0.00    -0.075 C 
HETATM    5  C5  LIG     1      -3.753   1.715   1.996  1.00  0.00    -0.075 C 
HETATM    6  C6  LIG     1      -2.317   1.466   1.679  1.00  0.00    -0.036 A 
HETATM    7  C7  LIG     1      -1.343   2.202   2.380  1.00  0.00    -0.073 A 
HETATM    8  C8  LIG     1       0.017   2.009   2.123  1.00  0.00    -0.082 A 
HETATM    9  C9  LIG     1       0.424   1.080   1.165  1.00  0.00    -0.083 A 
HETATM   10  C10 LIG     1      -0.529   0.342   0.461  1.00  0.00    -0.082 A 
HETATM   11  C11 LIG     1      -1.892   0.528   0.711  1.00  0.00    -0.073 A 
HETATM   12  H12 LIG     1      -9.219   0.270   0.832  1.00  0.00     0.071 H 
HETATM   13  H13 LIG     1      -8.775   1.961   1.280  1.00  0.00     0.071 H 
HETATM   14  H14 LIG     1      -8.665   0.623   2.505  1.00  0.00     0.071 H 
HETATM   15  H15 LIG     1      -7.054   0.863   0.009  1.00  0.00     0.315 HD
HETATM   16  H16 LIG     1      -6.319   1.198   2.884  1.00  0.00     0.085 H 
HETATM   17  H17 LIG     1      -6.384   2.502   1.624  1.00  0.00     0.085 H 
HETATM   18  H18 LIG     1      -4.628   0.343   0.635  1.00  0.00     0.079 H 
HETATM   19  H19 LIG     1      -3.979   2.456   2.760  1.00  0.00     0.084 H 
HETATM   20  H20 LIG     1      -1.640   2.928   3.128  1.00  0.00     0.084 H 
HETATM   21  H21 LIG     1       0.756   2.581   2.668  1.00  0.00     0.083 H 
HETATM   22  H22 LIG     1       1.478   0.932   0.967  1.00  0.00     0.083 H 
HETATM   23  H23 LIG     1      -0.210  -0.379  -0.282  1.00  0.00     0.083 H 
HETATM   24  H24 LIG     1      -2.595  -0.062   0.146  1.00  0.00     0.084 H 
ENDROOT
TORSDOF 4
ENDMDL
