MODEL 0
REMARK FAKE_HEAD_ATOM=C5_N4
REMARK REAL_HEAD_ATOM=C3_C2
REMARK DUMMY_ATOM=H13_H14_H15_C5_N4_H12
REMARK TORSION=H11_C3_C6_C7
REMARK TORSION=H11_C3_C2_O1
ROOT
HETATM    1  O1  LIG     1      -6.094   2.878   0.208  1.00  0.00    -0.399 OA
HETATM    2  C2  LIG     1      -4.944   2.693  -0.569  1.00  0.00     0.045 C 
HETATM    3  C3  LIG     1      -4.741   1.202  -0.933  1.00  0.00     0.152 C 
HETATM    4  N4  LIG     1      -5.781   0.703  -1.866  1.00  0.00     0.085 N 
HETATM    5  C5  LIG     1      -7.137   0.696  -1.308  1.00  0.00     0.094 C 
HETATM    6  C6  LIG     1      -3.334   1.062  -1.573  1.00  0.00    -0.037 C 
HETATM    7  C7  LIG     1      -2.906  -0.381  -1.852  1.00  0.00    -0.074 C 
HETATM    8  H8  LIG     1      -6.178   3.856   0.352  1.00  0.00     0.209 HD
HETATM    9  H9  LIG     1      -5.001   3.299  -1.502  1.00  0.00     0.077 H 
HETATM   10  H10 LIG     1      -4.075   3.035   0.038  1.00  0.00     0.077 H 
HETATM   11  H11 LIG     1      -4.748   0.604   0.007  1.00  0.00     0.091 H 
HETATM   12  H12 LIG     1      -5.574  -0.298  -2.084  1.00  0.00     0.315 HD
HETATM   13  H13 LIG     1      -7.554   1.722  -1.268  1.00  0.00     0.071 H 
HETATM   14  H14 LIG     1      -7.158   0.217  -0.304  1.00  0.00     0.071 H 
HETATM   15  H15 LIG     1      -7.808   0.121  -1.982  1.00  0.00     0.071 H 
HETATM   16  H16 LIG     1      -2.582   1.481  -0.867  1.00  0.00     0.035 H 
HETATM   17  H17 LIG     1      -3.284   1.647  -2.517  1.00  0.00     0.035 H 
HETATM   18  H18 LIG     1      -2.936  -0.979  -0.917  1.00  0.00     0.027 H 
HETATM   19  H19 LIG     1      -1.864  -0.384  -2.238  1.00  0.00     0.027 H 
HETATM   20  H20 LIG     1      -3.542  -0.861  -2.622  1.00  0.00     0.027 H 
ENDROOT
TORSDOF 6
ENDMDL
