MODEL 0
REMARK FAKE_HEAD_ATOM=C1_C2
REMARK REAL_HEAD_ATOM=C3_H9
REMARK DUMMY_ATOM=C1_H4_H5_H6_C2_H7_H8
ROOT
HETATM    1  C1  LIG     1       1.397   0.294  -0.332  1.00  0.00    -0.077 C 
HETATM    2  C2  LIG     1       2.004  -0.394   0.886  1.00  0.00    -0.072 C 
HETATM    3  C3  LIG     1       3.438  -0.840   0.613  1.00  0.00    -0.077 C 
HETATM    4  H4  LIG     1       1.987   1.196  -0.600  1.00  0.00     0.027 H 
HETATM    5  H5  LIG     1       0.356   0.606  -0.102  1.00  0.00     0.027 H 
HETATM    6  H6  LIG     1       1.377  -0.400  -1.198  1.00  0.00     0.027 H 
HETATM    7  H7  LIG     1       1.998   0.310   1.746  1.00  0.00     0.032 H 
HETATM    8  H8  LIG     1       1.389  -1.282   1.149  1.00  0.00     0.032 H 
HETATM    9  H9  LIG     1       4.074   0.036   0.365  1.00  0.00     0.027 H 
HETATM   10  H10 LIG     1       3.463  -1.560  -0.233  1.00  0.00     0.027 H 
HETATM   11  H11 LIG     1       3.852  -1.337   1.516  1.00  0.00     0.027 H 
ENDROOT
TORSDOF 2
ENDMDL
