MODEL 0
REMARK FAKE_HEAD_ATOM=C1_C2
REMARK REAL_HEAD_ATOM=C3_C4
REMARK DUMMY_ATOM=C1_H10_H11_H12_C2_H13_H14
ROOT
HETATM    1  C1  LIG     1       1.108  -1.910  -0.385  1.00  0.00    -0.073 C 
HETATM    2  C2  LIG     1       2.449  -1.656   0.301  1.00  0.00    -0.044 C 
HETATM    3  C3  LIG     1       2.916  -0.234   0.104  1.00  0.00    -0.058 A 
HETATM    4  C4  LIG     1       2.165   0.840   0.615  1.00  0.00    -0.075 A 
HETATM    5  C5  LIG     1       2.603   2.155   0.434  1.00  0.00    -0.061 A 
HETATM    6  C6  LIG     1       3.793   2.410  -0.254  1.00  0.00     0.034 A 
HETATM    7 CL7  LIG     1       4.340   4.062  -0.479  1.00  0.00    -0.084 Cl
HETATM    8  C8  LIG     1       4.547   1.348  -0.762  1.00  0.00    -0.061 A 
HETATM    9  C9  LIG     1       4.113   0.031  -0.584  1.00  0.00    -0.075 A 
HETATM   10  H10 LIG     1       0.805  -2.967  -0.226  1.00  0.00     0.028 H 
HETATM   11  H11 LIG     1       1.196  -1.726  -1.477  1.00  0.00     0.028 H 
HETATM   12  H12 LIG     1       0.316  -1.254   0.032  1.00  0.00     0.028 H 
HETATM   13  H13 LIG     1       3.189  -2.370  -0.122  1.00  0.00     0.039 H 
HETATM   14  H14 LIG     1       2.357  -1.863   1.389  1.00  0.00     0.039 H 
HETATM   15  H15 LIG     1       1.244   0.657   1.154  1.00  0.00     0.084 H 
HETATM   16  H16 LIG     1       2.018   2.975   0.830  1.00  0.00     0.086 H 
HETATM   17  H17 LIG     1       5.470   1.542  -1.294  1.00  0.00     0.086 H 
HETATM   18  H18 LIG     1       4.709  -0.782  -0.982  1.00  0.00     0.084 H 
ENDROOT
TORSDOF 2
ENDMDL
