MODEL 0
REMARK FAKE_HEAD_ATOM=C1_C2
REMARK REAL_HEAD_ATOM=C3_C4
REMARK DUMMY_ATOM=C1_H10_H11_H12_C2_H13_H14
REMARK TORSION=H15_C3_C4_C5
ROOT
HETATM    1  C1  LIG     1      -1.231   0.042  -0.885  1.00  0.00    -0.076 C 
HETATM    2  C2  LIG     1       0.235  -0.043  -0.469  1.00  0.00    -0.065 C 
HETATM    3  C3  LIG     1       1.149  -0.186  -1.694  1.00  0.00    -0.041 C 
HETATM    4  C4  LIG     1       2.603  -0.272  -1.297  1.00  0.00    -0.058 A 
HETATM    5  C5  LIG     1       3.514   0.713  -1.717  1.00  0.00    -0.077 A 
HETATM    6  C6  LIG     1       4.862   0.628  -1.353  1.00  0.00    -0.082 A 
HETATM    7  C7  LIG     1       5.310  -0.439  -0.569  1.00  0.00    -0.083 A 
HETATM    8  C8  LIG     1       4.412  -1.424  -0.150  1.00  0.00    -0.082 A 
HETATM    9  C9  LIG     1       3.064  -1.344  -0.511  1.00  0.00    -0.077 A 
HETATM   10  H10 LIG     1      -1.869   0.148   0.018  1.00  0.00     0.027 H 
HETATM   11  H11 LIG     1      -1.532  -0.879  -1.428  1.00  0.00     0.027 H 
HETATM   12  H12 LIG     1      -1.396   0.923  -1.542  1.00  0.00     0.027 H 
HETATM   13  H13 LIG     1       0.357  -0.916   0.206  1.00  0.00     0.032 H 
HETATM   14  H14 LIG     1       0.506   0.879   0.089  1.00  0.00     0.032 H 
HETATM   15  H15 LIG     1       0.985   0.692  -2.357  1.00  0.00     0.040 H 
HETATM   16  H16 LIG     1       0.880  -1.101  -2.265  1.00  0.00     0.040 H 
HETATM   17  H17 LIG     1       3.182   1.545  -2.325  1.00  0.00     0.084 H 
HETATM   18  H18 LIG     1       5.559   1.389  -1.678  1.00  0.00     0.083 H 
HETATM   19  H19 LIG     1       6.354  -0.503  -0.289  1.00  0.00     0.083 H 
HETATM   20  H20 LIG     1       4.762  -2.251   0.455  1.00  0.00     0.083 H 
HETATM   21  H21 LIG     1       2.381  -2.117  -0.183  1.00  0.00     0.084 H 
ENDROOT
TORSDOF 3
ENDMDL
