MODEL 0
REMARK FAKE_HEAD_ATOM=C1_C2
REMARK REAL_HEAD_ATOM=C3_C4
REMARK DUMMY_ATOM=C1_H16_H17_H18_C2_H19_H20
REMARK TORSION=H21_C3_C4_C5
REMARK TORSION=H21_C3_C10_C11
ROOT
HETATM    1  C1  LIG     1      -0.319  -0.129   0.042  1.00  0.00    -0.076 C 
HETATM    2  C2  LIG     1       1.208  -0.056   0.015  1.00  0.00    -0.057 C 
HETATM    3  C3  LIG     1       1.806  -0.604  -1.301  1.00  0.00    -0.004 C 
HETATM    4  C4  LIG     1       1.306   0.128  -2.544  1.00  0.00    -0.050 A 
HETATM    5  C5  LIG     1       0.736  -0.613  -3.598  1.00  0.00    -0.076 A 
HETATM    6  C6  LIG     1       0.281   0.029  -4.753  1.00  0.00    -0.082 A 
HETATM    7  C7  LIG     1       0.378   1.417  -4.868  1.00  0.00    -0.083 A 
HETATM    8  C8  LIG     1       0.929   2.166  -3.828  1.00  0.00    -0.082 A 
HETATM    9  C9  LIG     1       1.393   1.531  -2.672  1.00  0.00    -0.076 A 
HETATM   10  C10 LIG     1       3.330  -0.638  -1.253  1.00  0.00    -0.050 A 
HETATM   11  C11 LIG     1       4.101   0.529  -1.079  1.00  0.00    -0.076 A 
HETATM   12  C12 LIG     1       5.497   0.458  -1.052  1.00  0.00    -0.082 A 
HETATM   13  C13 LIG     1       6.141  -0.772  -1.194  1.00  0.00    -0.083 A 
HETATM   14  C14 LIG     1       5.391  -1.937  -1.359  1.00  0.00    -0.082 A 
HETATM   15  C15 LIG     1       3.995  -1.874  -1.388  1.00  0.00    -0.076 A 
HETATM   16  H16 LIG     1      -0.690   0.250   1.018  1.00  0.00     0.027 H 
HETATM   17  H17 LIG     1      -0.658  -1.179  -0.084  1.00  0.00     0.027 H 
HETATM   18  H18 LIG     1      -0.758   0.496  -0.764  1.00  0.00     0.027 H 
HETATM   19  H19 LIG     1       1.596  -0.663   0.862  1.00  0.00     0.033 H 
HETATM   20  H20 LIG     1       1.519   0.997   0.179  1.00  0.00     0.033 H 
HETATM   21  H21 LIG     1       1.463  -1.661  -1.380  1.00  0.00     0.054 H 
HETATM   22  H22 LIG     1       0.655  -1.691  -3.531  1.00  0.00     0.084 H 
HETATM   23  H23 LIG     1      -0.146  -0.551  -5.561  1.00  0.00     0.083 H 
HETATM   24  H24 LIG     1       0.024   1.912  -5.763  1.00  0.00     0.083 H 
HETATM   25  H25 LIG     1       0.996   3.243  -3.915  1.00  0.00     0.083 H 
HETATM   26  H26 LIG     1       1.800   2.140  -1.882  1.00  0.00     0.084 H 
HETATM   27  H27 LIG     1       3.637   1.493  -0.957  1.00  0.00     0.084 H 
HETATM   28  H28 LIG     1       6.081   1.360  -0.921  1.00  0.00     0.083 H 
HETATM   29  H29 LIG     1       7.222  -0.823  -1.174  1.00  0.00     0.083 H 
HETATM   30  H30 LIG     1       5.891  -2.890  -1.467  1.00  0.00     0.083 H 
HETATM   31  H31 LIG     1       3.433  -2.790  -1.520  1.00  0.00     0.084 H 
ENDROOT
TORSDOF 4
ENDMDL
