MODEL 0
REMARK FAKE_HEAD_ATOM=C1_C2
REMARK REAL_HEAD_ATOM=C3_C4
REMARK DUMMY_ATOM=C1_H13_H14_H15_C2_H16_H17
ROOT
HETATM    1  C1  LIG     1      -3.421   1.562  -0.242  1.00  0.00    -0.073 C 
HETATM    2  C2  LIG     1      -1.968   1.396   0.209  1.00  0.00    -0.043 C 
HETATM    3  C3  LIG     1      -1.465  -0.038   0.365  1.00  0.00    -0.047 A 
HETATM    4  C4  LIG     1      -2.308  -1.141   0.099  1.00  0.00    -0.076 A 
HETATM    5  C5  LIG     1      -1.844  -2.448   0.243  1.00  0.00    -0.082 A 
HETATM    6  C6  LIG     1      -0.538  -2.693   0.654  1.00  0.00    -0.072 A 
HETATM    7  C7  LIG     1       0.327  -1.627   0.927  1.00  0.00    -0.025 A 
HETATM    8  C8  LIG     1       1.643  -1.885   1.342  1.00  0.00    -0.072 A 
HETATM    9  C9  LIG     1       2.514  -0.831   1.618  1.00  0.00    -0.082 A 
HETATM   10  C10 LIG     1       2.082   0.488   1.482  1.00  0.00    -0.082 A 
HETATM   11  C11 LIG     1       0.776   0.764   1.071  1.00  0.00    -0.072 A 
HETATM   12  C12 LIG     1      -0.126  -0.287   0.786  1.00  0.00    -0.020 A 
HETATM   13  H13 LIG     1      -3.662   2.643  -0.316  1.00  0.00     0.028 H 
HETATM   14  H14 LIG     1      -4.112   1.102   0.495  1.00  0.00     0.028 H 
HETATM   15  H15 LIG     1      -3.573   1.105  -1.243  1.00  0.00     0.028 H 
HETATM   16  H16 LIG     1      -1.867   1.911   1.189  1.00  0.00     0.039 H 
HETATM   17  H17 LIG     1      -1.328   1.913  -0.538  1.00  0.00     0.039 H 
HETATM   18  H18 LIG     1      -3.329  -1.004  -0.223  1.00  0.00     0.084 H 
HETATM   19  H19 LIG     1      -2.505  -3.279   0.034  1.00  0.00     0.083 H 
HETATM   20  H20 LIG     1      -0.200  -3.717   0.759  1.00  0.00     0.084 H 
HETATM   21  H21 LIG     1       1.996  -2.904   1.453  1.00  0.00     0.084 H 
HETATM   22  H22 LIG     1       3.527  -1.037   1.937  1.00  0.00     0.083 H 
HETATM   23  H23 LIG     1       2.763   1.301   1.697  1.00  0.00     0.083 H 
HETATM   24  H24 LIG     1       0.482   1.801   0.979  1.00  0.00     0.084 H 
ENDROOT
TORSDOF 2
ENDMDL
