MODEL 0
REMARK FAKE_HEAD_ATOM=C1_C2
REMARK REAL_HEAD_ATOM=C3_C4
REMARK DUMMY_ATOM=C1_H13_H14_H15_C2_H16_H17
ROOT
HETATM    1  C1  LIG     1      -1.136   0.507  -3.493  1.00  0.00    -0.073 C 
HETATM    2  C2  LIG     1       0.003   1.298  -2.852  1.00  0.00    -0.044 C 
HETATM    3  C3  LIG     1       1.207   0.426  -2.586  1.00  0.00    -0.058 A 
HETATM    4  C4  LIG     1       2.429   0.694  -3.226  1.00  0.00    -0.066 A 
HETATM    5  C5  LIG     1       3.550  -0.113  -2.978  1.00  0.00    -0.025 A 
HETATM    6  C6  LIG     1       4.773   0.148  -3.617  1.00  0.00    -0.072 A 
HETATM    7  C7  LIG     1       5.884  -0.662  -3.363  1.00  0.00    -0.082 A 
HETATM    8  C8  LIG     1       5.783  -1.735  -2.473  1.00  0.00    -0.082 A 
HETATM    9  C9  LIG     1       4.571  -2.005  -1.830  1.00  0.00    -0.072 A 
HETATM   10  C10 LIG     1       3.449  -1.199  -2.077  1.00  0.00    -0.026 A 
HETATM   11  C11 LIG     1       2.229  -1.460  -1.438  1.00  0.00    -0.072 A 
HETATM   12  C12 LIG     1       1.117  -0.653  -1.690  1.00  0.00    -0.076 A 
HETATM   13  H13 LIG     1      -1.996   1.184  -3.681  1.00  0.00     0.028 H 
HETATM   14  H14 LIG     1      -1.477  -0.312  -2.826  1.00  0.00     0.028 H 
HETATM   15  H15 LIG     1      -0.805   0.075  -4.461  1.00  0.00     0.028 H 
HETATM   16  H16 LIG     1      -0.343   1.745  -1.896  1.00  0.00     0.039 H 
HETATM   17  H17 LIG     1       0.269   2.129  -3.541  1.00  0.00     0.039 H 
HETATM   18  H18 LIG     1       2.506   1.526  -3.916  1.00  0.00     0.085 H 
HETATM   19  H19 LIG     1       4.867   0.976  -4.309  1.00  0.00     0.084 H 
HETATM   20  H20 LIG     1       6.824  -0.458  -3.857  1.00  0.00     0.083 H 
HETATM   21  H21 LIG     1       6.647  -2.359  -2.280  1.00  0.00     0.083 H 
HETATM   22  H22 LIG     1       4.509  -2.840  -1.143  1.00  0.00     0.084 H 
HETATM   23  H23 LIG     1       2.138  -2.287  -0.744  1.00  0.00     0.084 H 
HETATM   24  H24 LIG     1       0.184  -0.867  -1.184  1.00  0.00     0.084 H 
ENDROOT
TORSDOF 2
ENDMDL
