MODEL 0
REMARK FAKE_HEAD_ATOM=C1_C2
REMARK REAL_HEAD_ATOM=C3_C4
REMARK DUMMY_ATOM=C1_H15_H16_H17_C2_H18_H19
ROOT
HETATM    1  C1  LIG     1      -3.999   0.155   3.352  1.00  0.00    -0.073 C 
HETATM    2  C2  LIG     1      -3.067  -0.368   2.261  1.00  0.00    -0.044 C 
HETATM    3  C3  LIG     1      -1.613  -0.205   2.633  1.00  0.00    -0.059 A 
HETATM    4  C4  LIG     1      -1.069   1.068   2.831  1.00  0.00    -0.076 A 
HETATM    5  C5  LIG     1       0.280   1.224   3.160  1.00  0.00    -0.072 A 
HETATM    6  C6  LIG     1      -0.788  -1.326   2.769  1.00  0.00    -0.076 A 
HETATM    7  C7  LIG     1       0.562  -1.181   3.098  1.00  0.00    -0.072 A 
HETATM    8  C8  LIG     1       1.136   0.101   3.300  1.00  0.00    -0.026 A 
HETATM    9  C9  LIG     1       2.611   0.265   3.642  1.00  0.00    -0.026 A 
HETATM   10  C10 LIG     1       3.206   1.549   3.753  1.00  0.00    -0.072 A 
HETATM   11  C11 LIG     1       4.563   1.691   4.058  1.00  0.00    -0.082 A 
HETATM   12  C12 LIG     1       5.360   0.569   4.260  1.00  0.00    -0.083 A 
HETATM   13  C13 LIG     1       4.805  -0.702   4.160  1.00  0.00    -0.082 A 
HETATM   14  C14 LIG     1       3.450  -0.861   3.855  1.00  0.00    -0.072 A 
HETATM   15  H15 LIG     1      -5.054   0.009   3.038  1.00  0.00     0.028 H 
HETATM   16  H16 LIG     1      -3.837   1.238   3.530  1.00  0.00     0.028 H 
HETATM   17  H17 LIG     1      -3.830  -0.401   4.299  1.00  0.00     0.028 H 
HETATM   18  H18 LIG     1      -3.263   0.177   1.313  1.00  0.00     0.039 H 
HETATM   19  H19 LIG     1      -3.308  -1.441   2.093  1.00  0.00     0.039 H 
HETATM   20  H20 LIG     1      -1.691   1.948   2.726  1.00  0.00     0.084 H 
HETATM   21  H21 LIG     1       0.627   2.231   3.298  1.00  0.00     0.084 H 
HETATM   22  H22 LIG     1      -1.190  -2.320   2.616  1.00  0.00     0.084 H 
HETATM   23  H23 LIG     1       1.136  -2.086   3.178  1.00  0.00     0.084 H 
HETATM   24  H24 LIG     1       2.650   2.457   3.603  1.00  0.00     0.084 H 
HETATM   25  H25 LIG     1       4.997   2.680   4.135  1.00  0.00     0.083 H 
HETATM   26  H26 LIG     1       6.410   0.686   4.495  1.00  0.00     0.083 H 
HETATM   27  H27 LIG     1       5.428  -1.573   4.319  1.00  0.00     0.083 H 
HETATM   28  H28 LIG     1       3.087  -1.871   3.796  1.00  0.00     0.084 H 
ENDROOT
TORSDOF 3
ENDMDL
