MODEL 0
REMARK FAKE_HEAD_ATOM=C1_C2
REMARK REAL_HEAD_ATOM=C3_C4
REMARK DUMMY_ATOM=C1_H8_H9_H10_C2_H11_H12
ROOT
HETATM    1  C1  LIG     1      -0.085  -1.165   0.009  1.00  0.00    -0.071 C 
HETATM    2  C2  LIG     1       1.415  -1.098   0.281  1.00  0.00    -0.024 C 
HETATM    3  C3  LIG     1       1.780   0.162   1.005  1.00  0.00     0.052 A 
HETATM    4  C4  LIG     1       1.605   1.451   0.544  1.00  0.00    -0.052 A 
HETATM    5  C5  LIG     1       2.087   2.274   1.536  1.00  0.00    -0.059 A 
HETATM    6  C6  LIG     1       2.530   1.443   2.545  1.00  0.00     0.019 A 
HETATM    7  O7  LIG     1       2.334   0.191   2.196  1.00  0.00    -0.327 OA
HETATM    8  H8  LIG     1      -0.324  -2.111  -0.520  1.00  0.00     0.028 H 
HETATM    9  H9  LIG     1      -0.404  -0.314  -0.630  1.00  0.00     0.028 H 
HETATM   10  H10 LIG     1      -0.651  -1.137   0.965  1.00  0.00     0.028 H 
HETATM   11  H11 LIG     1       1.970  -1.142  -0.680  1.00  0.00     0.042 H 
HETATM   12  H12 LIG     1       1.706  -1.974   0.900  1.00  0.00     0.042 H 
HETATM   13  H13 LIG     1       1.177   1.755  -0.403  1.00  0.00     0.087 H 
HETATM   14  H14 LIG     1       2.113   3.356   1.526  1.00  0.00     0.086 H 
HETATM   15  H15 LIG     1       2.973   1.757   3.481  1.00  0.00     0.123 H 
ENDROOT
TORSDOF 2
ENDMDL
