MODEL 0
REMARK FAKE_HEAD_ATOM=C5_C4
REMARK REAL_HEAD_ATOM=C3_C2
REMARK DUMMY_ATOM=C5_H15_H16_H17_C4_H13_H14
ROOT
HETATM    1  C1  LIG     1       1.054  -0.143  -0.045  1.00  0.00    -0.031 C 
HETATM    2  C2  LIG     1       2.549  -0.090  -0.037  1.00  0.00     0.055 A 
HETATM    3  C3  LIG     1       3.347   1.044  -0.036  1.00  0.00    -0.027 A 
HETATM    4  C4  LIG     1       2.864   2.473  -0.044  1.00  0.00    -0.042 C 
HETATM    5  C5  LIG     1       3.994   3.500  -0.033  1.00  0.00    -0.073 C 
HETATM    6  C6  LIG     1       4.653   0.589  -0.027  1.00  0.00    -0.046 A 
HETATM    7  C7  LIG     1       4.570  -0.789  -0.023  1.00  0.00     0.050 A 
HETATM    8  C8  LIG     1       5.720  -1.740  -0.014  1.00  0.00    -0.031 C 
HETATM    9  O9  LIG     1       3.310  -1.162  -0.029  1.00  0.00    -0.320 OA
HETATM   10  H10 LIG     1       0.612   0.875  -0.051  1.00  0.00     0.036 H 
HETATM   11  H11 LIG     1       0.701  -0.680   0.860  1.00  0.00     0.036 H 
HETATM   12  H12 LIG     1       0.711  -0.687  -0.949  1.00  0.00     0.036 H 
HETATM   13  H13 LIG     1       2.228   2.639   0.851  1.00  0.00     0.039 H 
HETATM   14  H14 LIG     1       2.247   2.635  -0.955  1.00  0.00     0.039 H 
HETATM   15  H15 LIG     1       4.612   3.384   0.882  1.00  0.00     0.028 H 
HETATM   16  H16 LIG     1       3.565   4.524  -0.042  1.00  0.00     0.028 H 
HETATM   17  H17 LIG     1       4.636   3.379  -0.932  1.00  0.00     0.028 H 
HETATM   18  H18 LIG     1       5.559   1.181  -0.024  1.00  0.00     0.088 H 
HETATM   19  H19 LIG     1       6.684  -1.189  -0.011  1.00  0.00     0.036 H 
HETATM   20  H20 LIG     1       5.674  -2.383  -0.917  1.00  0.00     0.036 H 
HETATM   21  H21 LIG     1       5.665  -2.378   0.892  1.00  0.00     0.036 H 
ENDROOT
TORSDOF 4
ENDMDL
