MODEL 0
REMARK FAKE_HEAD_ATOM=C1_C2
REMARK REAL_HEAD_ATOM=C3_C4
REMARK DUMMY_ATOM=C1_H9_H10_H11_C2_H12_H13
ROOT
HETATM    1  C1  LIG     1       1.071   0.013  -0.306  1.00  0.00    -0.076 C 
HETATM    2  C2  LIG     1       2.173  -0.432   0.654  1.00  0.00    -0.065 C 
HETATM    3  C3  LIG     1       3.397  -1.250   0.140  1.00  0.00    -0.054 C 
HETATM    4  C4  LIG     1       3.086  -2.674  -0.383  1.00  0.00    -0.062 C 
HETATM    5  C5  LIG     1       2.601  -2.699  -1.844  1.00  0.00    -0.065 C 
HETATM    6  C6  LIG     1       3.622  -2.004  -2.754  1.00  0.00    -0.065 C 
HETATM    7  C7  LIG     1       3.840  -0.553  -2.307  1.00  0.00    -0.065 C 
HETATM    8  C8  LIG     1       4.333  -0.512  -0.849  1.00  0.00    -0.062 C 
HETATM    9  H9  LIG     1       0.308   0.574   0.275  1.00  0.00     0.027 H 
HETATM   10  H10 LIG     1       0.544  -0.844  -0.758  1.00  0.00     0.027 H 
HETATM   11  H11 LIG     1       1.449   0.711  -1.072  1.00  0.00     0.027 H 
HETATM   12  H12 LIG     1       1.683  -1.033   1.452  1.00  0.00     0.033 H 
HETATM   13  H13 LIG     1       2.568   0.489   1.137  1.00  0.00     0.033 H 
HETATM   14  H14 LIG     1       3.983  -1.387   1.078  1.00  0.00     0.040 H 
HETATM   15  H15 LIG     1       2.369  -3.192   0.289  1.00  0.00     0.033 H 
HETATM   16  H16 LIG     1       4.036  -3.254  -0.360  1.00  0.00     0.033 H 
HETATM   17  H17 LIG     1       1.621  -2.210  -1.958  1.00  0.00     0.033 H 
HETATM   18  H18 LIG     1       2.477  -3.754  -2.170  1.00  0.00     0.033 H 
HETATM   19  H19 LIG     1       3.263  -2.024  -3.805  1.00  0.00     0.033 H 
HETATM   20  H20 LIG     1       4.589  -2.553  -2.710  1.00  0.00     0.033 H 
HETATM   21  H21 LIG     1       2.902   0.010  -2.437  1.00  0.00     0.033 H 
HETATM   22  H22 LIG     1       4.599  -0.076  -2.963  1.00  0.00     0.033 H 
HETATM   23  H23 LIG     1       4.516   0.531  -0.513  1.00  0.00     0.033 H 
HETATM   24  H24 LIG     1       5.314  -1.038  -0.838  1.00  0.00     0.033 H 
ENDROOT
TORSDOF 2
ENDMDL
