MODEL 0
REMARK FAKE_HEAD_ATOM=C1_C2
REMARK REAL_HEAD_ATOM=C3_C4
REMARK DUMMY_ATOM=C1_H10_H11_H12_C2_H13_H14
REMARK TORSION=H15_C3_C4_C5
ROOT
HETATM    1  C1  LIG     1       1.063  -0.678  -0.862  1.00  0.00    -0.077 C 
HETATM    2  C2  LIG     1       1.491  -1.936  -0.116  1.00  0.00    -0.068 C 
HETATM    3  C3  LIG     1       2.878  -1.946   0.571  1.00  0.00    -0.062 C 
HETATM    4  C4  LIG     1       4.258  -2.066  -0.158  1.00  0.00    -0.054 C 
HETATM    5  C5  LIG     1       4.323  -3.149  -1.257  1.00  0.00    -0.062 C 
HETATM    6  C6  LIG     1       3.779  -2.636  -2.602  1.00  0.00    -0.065 C 
HETATM    7  C7  LIG     1       4.558  -1.386  -3.049  1.00  0.00    -0.065 C 
HETATM    8  C8  LIG     1       4.471  -0.264  -2.000  1.00  0.00    -0.065 C 
HETATM    9  C9  LIG     1       4.953  -0.768  -0.640  1.00  0.00    -0.062 C 
HETATM   10  H10 LIG     1      -0.020  -0.756  -1.098  1.00  0.00     0.027 H 
HETATM   11  H11 LIG     1       1.553  -0.586  -1.838  1.00  0.00     0.027 H 
HETATM   12  H12 LIG     1       1.222   0.225  -0.236  1.00  0.00     0.027 H 
HETATM   13  H13 LIG     1       1.356  -2.832  -0.758  1.00  0.00     0.032 H 
HETATM   14  H14 LIG     1       0.758  -2.034   0.716  1.00  0.00     0.032 H 
HETATM   15  H15 LIG     1       2.822  -2.881   1.175  1.00  0.00     0.033 H 
HETATM   16  H16 LIG     1       2.934  -1.114   1.306  1.00  0.00     0.033 H 
HETATM   17  H17 LIG     1       4.914  -2.409   0.676  1.00  0.00     0.040 H 
HETATM   18  H18 LIG     1       3.800  -4.073  -0.931  1.00  0.00     0.033 H 
HETATM   19  H19 LIG     1       5.391  -3.413  -1.422  1.00  0.00     0.033 H 
HETATM   20  H20 LIG     1       2.703  -2.402  -2.534  1.00  0.00     0.033 H 
HETATM   21  H21 LIG     1       3.895  -3.431  -3.370  1.00  0.00     0.033 H 
HETATM   22  H22 LIG     1       4.165  -1.020  -4.022  1.00  0.00     0.033 H 
HETATM   23  H23 LIG     1       5.625  -1.664  -3.192  1.00  0.00     0.033 H 
HETATM   24  H24 LIG     1       3.456   0.128  -1.913  1.00  0.00     0.033 H 
HETATM   25  H25 LIG     1       5.101   0.593  -2.323  1.00  0.00     0.033 H 
HETATM   26  H26 LIG     1       4.887   0.029   0.132  1.00  0.00     0.033 H 
HETATM   27  H27 LIG     1       6.033  -1.006  -0.771  1.00  0.00     0.033 H 
ENDROOT
TORSDOF 3
ENDMDL
