MODEL 0
REMARK FAKE_HEAD_ATOM=C8_C7
REMARK REAL_HEAD_ATOM=C6_C5
REMARK DUMMY_ATOM=C8_H17_H18_H19_C7_H15_H16
REMARK TORSION=H13_C6_C5_C4
REMARK TORSION=C6_C5_C4_C2
REMARK TORSION=C5_C4_C2_O1
ROOT
HETATM    1  O1  LIG     1      -3.984   0.523   0.577  1.00  0.00    -0.648 OA
HETATM    2  C2  LIG     1      -2.799   0.517   0.286  1.00  0.00     0.172 C 
HETATM    3  O3  LIG     1      -2.310   1.477  -0.524  1.00  0.00    -0.648 OA
HETATM    4  C4  LIG     1      -1.905  -0.563   0.836  1.00  0.00     0.016 C 
HETATM    5  C5  LIG     1      -0.449  -0.421   0.371  1.00  0.00    -0.056 C 
HETATM    6  C6  LIG     1       0.425  -1.539   0.952  1.00  0.00    -0.065 C 
HETATM    7  C7  LIG     1       1.879  -1.396   0.487  1.00  0.00    -0.069 C 
HETATM    8  C8  LIG     1       2.753  -2.507   1.064  1.00  0.00    -0.077 C 
HETATM    9  H9  LIG     1      -2.300  -1.549   0.506  1.00  0.00     0.049 H 
HETATM   10  H10 LIG     1      -1.941  -0.518   1.946  1.00  0.00     0.049 H 
HETATM   11  H11 LIG     1      -0.053   0.564   0.703  1.00  0.00     0.033 H 
HETATM   12  H12 LIG     1      -0.413  -0.469  -0.741  1.00  0.00     0.033 H 
HETATM   13  H13 LIG     1       0.029  -2.524   0.621  1.00  0.00     0.033 H 
HETATM   14  H14 LIG     1       0.389  -1.493   2.063  1.00  0.00     0.033 H 
HETATM   15  H15 LIG     1       2.283  -0.414   0.817  1.00  0.00     0.032 H 
HETATM   16  H16 LIG     1       1.924  -1.445  -0.623  1.00  0.00     0.032 H 
HETATM   17  H17 LIG     1       2.745  -2.467   2.174  1.00  0.00     0.027 H 
HETATM   18  H18 LIG     1       3.798  -2.379   0.711  1.00  0.00     0.027 H 
HETATM   19  H19 LIG     1       2.385  -3.500   0.731  1.00  0.00     0.027 H 
ENDROOT
TORSDOF 5
ENDMDL
