MODEL 0
REMARK FAKE_HEAD_ATOM=C1_C2
REMARK REAL_HEAD_ATOM=C3_C4
REMARK DUMMY_ATOM=C1_H15_H16_H17_C2_H18_H19
REMARK TORSION=H20_C3_C4_C5
REMARK TORSION=H20_C3_C10_C11
ROOT
HETATM    1  C1  LIG     1       0.356  -1.457   0.068  1.00  0.00    -0.076 C 
HETATM    2  C2  LIG     1       1.869  -1.251   0.091  1.00  0.00    -0.061 C 
HETATM    3  C3  LIG     1       2.487  -0.400  -1.067  1.00  0.00    -0.025 C 
HETATM    4  C4  LIG     1       1.947   1.045  -1.126  1.00  0.00    -0.054 A 
HETATM    5  C5  LIG     1       0.599   1.262  -1.491  1.00  0.00    -0.076 A 
HETATM    6  C6  LIG     1       0.074   2.554  -1.574  1.00  0.00    -0.082 A 
HETATM    7  C7  LIG     1       0.882   3.657  -1.310  1.00  0.00    -0.083 A 
HETATM    8  C8  LIG     1       2.221   3.471  -0.975  1.00  0.00    -0.082 A 
HETATM    9  C9  LIG     1       2.756   2.182  -0.889  1.00  0.00    -0.076 A 
HETATM   10  C10 LIG     1       4.050  -0.519  -1.027  1.00  0.00    -0.047 C 
HETATM   11  C11 LIG     1       4.793  -0.264   0.300  1.00  0.00    -0.061 C 
HETATM   12  C12 LIG     1       6.186  -0.774  -0.050  1.00  0.00    -0.065 C 
HETATM   13  C13 LIG     1       5.853  -2.133  -0.641  1.00  0.00    -0.065 C 
HETATM   14  C14 LIG     1       4.605  -1.888  -1.499  1.00  0.00    -0.061 C 
HETATM   15  H15 LIG     1       0.072  -2.153   0.886  1.00  0.00     0.027 H 
HETATM   16  H16 LIG     1       0.039  -1.905  -0.898  1.00  0.00     0.027 H 
HETATM   17  H17 LIG     1      -0.187  -0.512   0.262  1.00  0.00     0.027 H 
HETATM   18  H18 LIG     1       2.306  -2.269   0.058  1.00  0.00     0.033 H 
HETATM   19  H19 LIG     1       2.129  -0.799   1.071  1.00  0.00     0.033 H 
HETATM   20  H20 LIG     1       2.201  -0.848  -2.045  1.00  0.00     0.048 H 
HETATM   21  H21 LIG     1      -0.048   0.432  -1.732  1.00  0.00     0.084 H 
HETATM   22  H22 LIG     1      -0.962   2.699  -1.852  1.00  0.00     0.083 H 
HETATM   23  H23 LIG     1       0.473   4.657  -1.378  1.00  0.00     0.083 H 
HETATM   24  H24 LIG     1       2.852   4.331  -0.785  1.00  0.00     0.083 H 
HETATM   25  H25 LIG     1       3.796   2.100  -0.644  1.00  0.00     0.084 H 
HETATM   26  H26 LIG     1       4.470   0.208  -1.763  1.00  0.00     0.041 H 
HETATM   27  H27 LIG     1       4.386  -0.905   1.113  1.00  0.00     0.033 H 
HETATM   28  H28 LIG     1       4.800   0.777   0.669  1.00  0.00     0.033 H 
HETATM   29  H29 LIG     1       6.876  -0.832   0.819  1.00  0.00     0.033 H 
HETATM   30  H30 LIG     1       6.641  -0.121  -0.830  1.00  0.00     0.033 H 
HETATM   31  H31 LIG     1       5.541  -2.765   0.223  1.00  0.00     0.033 H 
HETATM   32  H32 LIG     1       6.679  -2.666  -1.157  1.00  0.00     0.033 H 
HETATM   33  H33 LIG     1       3.928  -2.758  -1.375  1.00  0.00     0.033 H 
HETATM   34  H34 LIG     1       4.851  -1.801  -2.581  1.00  0.00     0.033 H 
ENDROOT
TORSDOF 4
ENDMDL
