MODEL 0
REMARK FAKE_HEAD_ATOM=C1_C2
REMARK REAL_HEAD_ATOM=C3_C4
REMARK DUMMY_ATOM=C1_H12_H13_H14_C2_H15_H16
REMARK TORSION=C5_C6_N7_C8
ROOT
HETATM    1  C1  LIG     1       4.578   3.247   0.391  1.00  0.00    -0.073 C 
HETATM    2  C2  LIG     1       4.732   2.857  -1.078  1.00  0.00    -0.044 C 
HETATM    3  C3  LIG     1       3.931   1.623  -1.419  1.00  0.00    -0.058 A 
HETATM    4  C4  LIG     1       2.905   1.686  -2.368  1.00  0.00    -0.075 A 
HETATM    5  C5  LIG     1       2.163   0.546  -2.691  1.00  0.00    -0.057 A 
HETATM    6  C6  LIG     1       2.429  -0.700  -2.070  1.00  0.00     0.029 A 
HETATM    7  N7  LIG     1       1.662  -1.887  -2.403  1.00  0.00    -0.390 N 
HETATM    8  C8  LIG     1       0.346  -1.809  -3.025  1.00  0.00    -0.019 C 
HETATM    9  C9  LIG     1       2.160  -3.231  -2.136  1.00  0.00    -0.019 C 
HETATM   10  C10 LIG     1       3.474  -0.744  -1.113  1.00  0.00    -0.057 A 
HETATM   11  C11 LIG     1       4.210   0.401  -0.797  1.00  0.00    -0.075 A 
HETATM   12  H12 LIG     1       5.173   4.162   0.595  1.00  0.00     0.028 H 
HETATM   13  H13 LIG     1       4.943   2.439   1.059  1.00  0.00     0.028 H 
HETATM   14  H14 LIG     1       3.511   3.457   0.622  1.00  0.00     0.028 H 
HETATM   15  H15 LIG     1       5.804   2.669  -1.302  1.00  0.00     0.039 H 
HETATM   16  H16 LIG     1       4.401   3.719  -1.697  1.00  0.00     0.039 H 
HETATM   17  H17 LIG     1       2.679   2.621  -2.866  1.00  0.00     0.084 H 
HETATM   18  H18 LIG     1       1.402   0.657  -3.445  1.00  0.00     0.086 H 
HETATM   19  H19 LIG     1      -0.050  -0.786  -3.137  1.00  0.00     0.056 H 
HETATM   20  H20 LIG     1      -0.392  -2.344  -2.391  1.00  0.00     0.056 H 
HETATM   21  H21 LIG     1       0.373  -2.294  -4.024  1.00  0.00     0.056 H 
HETATM   22  H22 LIG     1       3.191  -3.270  -1.749  1.00  0.00     0.056 H 
HETATM   23  H23 LIG     1       2.177  -3.810  -3.083  1.00  0.00     0.056 H 
HETATM   24  H24 LIG     1       1.487  -3.745  -1.417  1.00  0.00     0.056 H 
HETATM   25  H25 LIG     1       3.725  -1.647  -0.583  1.00  0.00     0.086 H 
HETATM   26  H26 LIG     1       5.002   0.332  -0.061  1.00  0.00     0.084 H 
ENDROOT
TORSDOF 5
ENDMDL
