MODEL 0
REMARK FAKE_HEAD_ATOM=C9_C8
REMARK REAL_HEAD_ATOM=C7_C6
REMARK DUMMY_ATOM=C9_H21_H22_H23_C8_H19_H20
REMARK TORSION=H17_C7_C6_C5
REMARK TORSION=C4_C3_O2_C1
ROOT
HETATM    1  C1  LIG     1      -2.172  -0.747   0.130  1.00  0.00     0.010 C 
HETATM    2  O2  LIG     1      -1.055  -1.309   0.715  1.00  0.00    -0.356 OA
HETATM    3  C3  LIG     1      -0.137  -0.635   1.457  1.00  0.00     0.068 A 
HETATM    4  C4  LIG     1      -0.233   0.750   1.700  1.00  0.00    -0.050 A 
HETATM    5  C5  LIG     1       0.735   1.399   2.471  1.00  0.00    -0.074 A 
HETATM    6  C6  LIG     1       1.815   0.686   3.015  1.00  0.00    -0.058 A 
HETATM    7  C7  LIG     1       2.831   1.448   3.847  1.00  0.00    -0.041 C 
HETATM    8  C8  LIG     1       3.985   0.612   4.422  1.00  0.00    -0.065 C 
HETATM    9  C9  LIG     1       4.937   1.478   5.243  1.00  0.00    -0.076 C 
HETATM   10  C10 LIG     1       1.909  -0.700   2.769  1.00  0.00    -0.074 A 
HETATM   11  C11 LIG     1       0.940  -1.347   1.997  1.00  0.00    -0.050 A 
HETATM   12  H12 LIG     1      -2.734  -1.538  -0.409  1.00  0.00     0.066 H 
HETATM   13  H13 LIG     1      -1.872   0.033  -0.602  1.00  0.00     0.066 H 
HETATM   14  H14 LIG     1      -2.835  -0.311   0.907  1.00  0.00     0.066 H 
HETATM   15  H15 LIG     1      -1.052   1.331   1.298  1.00  0.00     0.087 H 
HETATM   16  H16 LIG     1       0.644   2.464   2.648  1.00  0.00     0.084 H 
HETATM   17  H17 LIG     1       2.289   1.925   4.694  1.00  0.00     0.040 H 
HETATM   18  H18 LIG     1       3.262   2.252   3.210  1.00  0.00     0.040 H 
HETATM   19  H19 LIG     1       4.560   0.145   3.592  1.00  0.00     0.032 H 
HETATM   20  H20 LIG     1       3.578  -0.185   5.082  1.00  0.00     0.032 H 
HETATM   21  H21 LIG     1       5.378   2.275   4.609  1.00  0.00     0.027 H 
HETATM   22  H22 LIG     1       5.758   0.849   5.646  1.00  0.00     0.027 H 
HETATM   23  H23 LIG     1       4.397   1.945   6.094  1.00  0.00     0.027 H 
HETATM   24  H24 LIG     1       2.722  -1.289   3.166  1.00  0.00     0.084 H 
HETATM   25  H25 LIG     1       1.025  -2.411   1.817  1.00  0.00     0.087 H 
ENDROOT
TORSDOF 5
ENDMDL
