MODEL 0
REMARK FAKE_HEAD_ATOM=C1_C2
REMARK REAL_HEAD_ATOM=C3_C4
REMARK DUMMY_ATOM=C1_H14_H15_H16_C2_H17_H18
REMARK TORSION=H19_C3_C4_C5
REMARK TORSION=C13_C10_O11_C12
REMARK TORSION=C5_C6_O7_C8
ROOT
HETATM    1  C1  LIG     1      -1.788   0.362   0.144  1.00  0.00    -0.076 C 
HETATM    2  C2  LIG     1      -0.269   0.355   0.001  1.00  0.00    -0.065 C 
HETATM    3  C3  LIG     1       0.390  -0.441   1.137  1.00  0.00    -0.041 C 
HETATM    4  C4  LIG     1       1.894  -0.460   1.005  1.00  0.00    -0.053 A 
HETATM    5  C5  LIG     1       2.571  -1.676   0.823  1.00  0.00    -0.045 A 
HETATM    6  C6  LIG     1       3.965  -1.709   0.706  1.00  0.00     0.071 A 
HETATM    7  O7  LIG     1       4.572  -2.913   0.531  1.00  0.00    -0.356 OA
HETATM    8  C8  LIG     1       5.933  -3.108   0.408  1.00  0.00     0.010 C 
HETATM    9  C9  LIG     1       4.691  -0.502   0.772  1.00  0.00    -0.019 A 
HETATM   10  C10 LIG     1       4.032   0.719   0.956  1.00  0.00     0.071 A 
HETATM   11  O11 LIG     1       4.778   1.855   1.015  1.00  0.00    -0.356 OA
HETATM   12  C12 LIG     1       4.277   3.129   1.186  1.00  0.00     0.010 C 
HETATM   13  C13 LIG     1       2.627   0.735   1.074  1.00  0.00    -0.045 A 
HETATM   14  H14 LIG     1      -2.238   0.941  -0.689  1.00  0.00     0.027 H 
HETATM   15  H15 LIG     1      -2.083   0.835   1.106  1.00  0.00     0.027 H 
HETATM   16  H16 LIG     1      -2.185  -0.675   0.112  1.00  0.00     0.027 H 
HETATM   17  H17 LIG     1       0.089   1.407   0.009  1.00  0.00     0.032 H 
HETATM   18  H18 LIG     1      -0.001  -0.104  -0.976  1.00  0.00     0.032 H 
HETATM   19  H19 LIG     1      -0.011  -1.478   1.115  1.00  0.00     0.040 H 
HETATM   20  H20 LIG     1       0.123   0.007   2.119  1.00  0.00     0.040 H 
HETATM   21  H21 LIG     1       2.015  -2.605   0.772  1.00  0.00     0.088 H 
HETATM   22  H22 LIG     1       6.133  -4.191   0.277  1.00  0.00     0.066 H 
HETATM   23  H23 LIG     1       6.456  -2.761   1.325  1.00  0.00     0.066 H 
HETATM   24  H24 LIG     1       6.321  -2.569  -0.483  1.00  0.00     0.066 H 
HETATM   25  H25 LIG     1       5.769  -0.501   0.684  1.00  0.00     0.092 H 
HETATM   26  H26 LIG     1       5.119   3.851   1.194  1.00  0.00     0.066 H 
HETATM   27  H27 LIG     1       3.738   3.206   2.154  1.00  0.00     0.066 H 
HETATM   28  H28 LIG     1       3.597   3.391   0.346  1.00  0.00     0.066 H 
HETATM   29  H29 LIG     1       2.101   1.668   1.222  1.00  0.00     0.088 H 
ENDROOT
TORSDOF 7
ENDMDL
