MODEL 0
REMARK FAKE_HEAD_ATOM=C8_C7
REMARK REAL_HEAD_ATOM=C6_C5
REMARK DUMMY_ATOM=C8_H18_H19_H20_C7_H16_H17
REMARK TORSION=C4_C3_O2_C1
ROOT
HETATM    1  C1  LIG     1       1.315   0.443   0.511  1.00  0.00     0.010 C 
HETATM    2  O2  LIG     1       1.989  -0.544  -0.179  1.00  0.00    -0.356 OA
HETATM    3  C3  LIG     1       2.627  -0.372  -1.368  1.00  0.00     0.068 A 
HETATM    4  C4  LIG     1       2.665   0.871  -2.031  1.00  0.00    -0.050 A 
HETATM    5  C5  LIG     1       3.333   0.998  -3.252  1.00  0.00    -0.074 A 
HETATM    6  C6  LIG     1       3.975  -0.105  -3.836  1.00  0.00    -0.058 A 
HETATM    7  C7  LIG     1       4.682   0.097  -5.164  1.00  0.00    -0.044 C 
HETATM    8  C8  LIG     1       5.361  -1.140  -5.752  1.00  0.00    -0.073 C 
HETATM    9  C9  LIG     1       3.935  -1.347  -3.170  1.00  0.00    -0.074 A 
HETATM   10  C10 LIG     1       3.266  -1.472  -1.948  1.00  0.00    -0.050 A 
HETATM   11  H11 LIG     1       0.898   0.011   1.444  1.00  0.00     0.066 H 
HETATM   12  H12 LIG     1       0.476   0.836  -0.101  1.00  0.00     0.066 H 
HETATM   13  H13 LIG     1       2.010   1.266   0.784  1.00  0.00     0.066 H 
HETATM   14  H14 LIG     1       2.182   1.743  -1.610  1.00  0.00     0.087 H 
HETATM   15  H15 LIG     1       3.351   1.962  -3.747  1.00  0.00     0.084 H 
HETATM   16  H16 LIG     1       5.458   0.882  -5.030  1.00  0.00     0.039 H 
HETATM   17  H17 LIG     1       3.938   0.464  -5.904  1.00  0.00     0.039 H 
HETATM   18  H18 LIG     1       6.147  -1.517  -5.064  1.00  0.00     0.028 H 
HETATM   19  H19 LIG     1       5.842  -0.874  -6.717  1.00  0.00     0.028 H 
HETATM   20  H20 LIG     1       4.613  -1.939  -5.945  1.00  0.00     0.028 H 
HETATM   21  H21 LIG     1       4.414  -2.223  -3.582  1.00  0.00     0.084 H 
HETATM   22  H22 LIG     1       3.244  -2.433  -1.449  1.00  0.00     0.087 H 
ENDROOT
TORSDOF 4
ENDMDL
