MODEL 0
REMARK FAKE_HEAD_ATOM=C1_C2
REMARK REAL_HEAD_ATOM=C3_C4
REMARK DUMMY_ATOM=C1_H16_H17_H18_C2_H19_H20
REMARK TORSION=H21_C3_C4_C5
REMARK TORSION=C8_C9_C10_C11
ROOT
HETATM    1  C1  LIG     1      -5.673  -0.191  -0.119  1.00  0.00    -0.076 C 
HETATM    2  C2  LIG     1      -4.154  -0.076  -0.021  1.00  0.00    -0.065 C 
HETATM    3  C3  LIG     1      -3.695  -0.046   1.443  1.00  0.00    -0.041 C 
HETATM    4  C4  LIG     1      -2.193   0.059   1.553  1.00  0.00    -0.058 A 
HETATM    5  C5  LIG     1      -1.454  -0.965   2.154  1.00  0.00    -0.076 A 
HETATM    6  C6  LIG     1      -0.064  -0.872   2.261  1.00  0.00    -0.072 A 
HETATM    7  C7  LIG     1      -1.523   1.186   1.064  1.00  0.00    -0.076 A 
HETATM    8  C8  LIG     1      -0.133   1.289   1.170  1.00  0.00    -0.072 A 
HETATM    9  C9  LIG     1       0.634   0.260   1.771  1.00  0.00    -0.026 A 
HETATM   10  C10 LIG     1       2.145   0.367   1.887  1.00  0.00    -0.026 A 
HETATM   11  C11 LIG     1       2.824   1.578   1.590  1.00  0.00    -0.072 A 
HETATM   12  C12 LIG     1       4.215   1.669   1.702  1.00  0.00    -0.082 A 
HETATM   13  C13 LIG     1       4.962   0.567   2.106  1.00  0.00    -0.083 A 
HETATM   14  C14 LIG     1       4.323  -0.633   2.403  1.00  0.00    -0.082 A 
HETATM   15  C15 LIG     1       2.934  -0.739   2.298  1.00  0.00    -0.072 A 
HETATM   16  H16 LIG     1      -5.976  -0.215  -1.187  1.00  0.00     0.027 H 
HETATM   17  H17 LIG     1      -6.158   0.681   0.369  1.00  0.00     0.027 H 
HETATM   18  H18 LIG     1      -6.022  -1.125   0.371  1.00  0.00     0.027 H 
HETATM   19  H19 LIG     1      -3.838   0.852  -0.544  1.00  0.00     0.032 H 
HETATM   20  H20 LIG     1      -3.694  -0.948  -0.535  1.00  0.00     0.032 H 
HETATM   21  H21 LIG     1      -4.051  -0.977   1.938  1.00  0.00     0.040 H 
HETATM   22  H22 LIG     1      -4.155   0.818   1.970  1.00  0.00     0.040 H 
HETATM   23  H23 LIG     1      -1.955  -1.843   2.543  1.00  0.00     0.084 H 
HETATM   24  H24 LIG     1       0.441  -1.692   2.741  1.00  0.00     0.084 H 
HETATM   25  H25 LIG     1      -2.078   1.991   0.600  1.00  0.00     0.084 H 
HETATM   26  H26 LIG     1       0.318   2.178   0.765  1.00  0.00     0.084 H 
HETATM   27  H27 LIG     1       2.303   2.467   1.283  1.00  0.00     0.084 H 
HETATM   28  H28 LIG     1       4.714   2.602   1.474  1.00  0.00     0.083 H 
HETATM   29  H29 LIG     1       6.039   0.644   2.190  1.00  0.00     0.083 H 
HETATM   30  H30 LIG     1       4.907  -1.490   2.715  1.00  0.00     0.083 H 
HETATM   31  H31 LIG     1       2.501  -1.696   2.532  1.00  0.00     0.084 H 
ENDROOT
TORSDOF 4
ENDMDL
