MODEL 0
REMARK FAKE_HEAD_ATOM=C1_C2
REMARK REAL_HEAD_ATOM=C3_C5
REMARK DUMMY_ATOM=C1_H18_H19_H20_C2_H21_H22
REMARK TORSION=H23_C3_C5_C6
REMARK TORSION=C10_C11_C12_C13
ROOT
HETATM    1  C1  LIG     1      -3.914   0.640   0.193  1.00  0.00    -0.076 C 
HETATM    2  C2  LIG     1      -2.383   0.610   0.210  1.00  0.00    -0.062 C 
HETATM    3  C3  LIG     1      -1.774  -0.772  -0.152  1.00  0.00    -0.032 C 
HETATM    4  C4  LIG     1      -2.144  -1.179  -1.592  1.00  0.00    -0.069 C 
HETATM    5  C5  LIG     1      -0.251  -0.838   0.023  1.00  0.00    -0.051 A 
HETATM    6  C6  LIG     1       0.395  -2.076  -0.123  1.00  0.00    -0.038 A 
HETATM    7  C7  LIG     1       1.780  -2.198   0.028  1.00  0.00     0.128 A 
HETATM    8  F8  LIG     1       2.317  -3.424  -0.171  1.00  0.00    -0.205 F 
HETATM    9  C9  LIG     1       0.533   0.289   0.332  1.00  0.00    -0.075 A 
HETATM   10  C10 LIG     1       1.917   0.178   0.482  1.00  0.00    -0.069 A 
HETATM   11  C11 LIG     1       2.578  -1.064   0.338  1.00  0.00     0.013 A 
HETATM   12  C12 LIG     1       4.083  -1.147   0.512  1.00  0.00    -0.023 A 
HETATM   13  C13 LIG     1       4.891   0.011   0.376  1.00  0.00    -0.072 A 
HETATM   14  C14 LIG     1       6.278  -0.056   0.535  1.00  0.00    -0.082 A 
HETATM   15  C15 LIG     1       6.893  -1.268   0.836  1.00  0.00    -0.083 A 
HETATM   16  C16 LIG     1       6.124  -2.419   0.981  1.00  0.00    -0.082 A 
HETATM   17  C17 LIG     1       4.735  -2.367   0.822  1.00  0.00    -0.072 A 
HETATM   18  H18 LIG     1      -4.264   1.641   0.522  1.00  0.00     0.027 H 
HETATM   19  H19 LIG     1      -4.322  -0.123   0.889  1.00  0.00     0.027 H 
HETATM   20  H20 LIG     1      -4.317   0.466  -0.825  1.00  0.00     0.027 H 
HETATM   21  H21 LIG     1      -2.075   0.868   1.247  1.00  0.00     0.033 H 
HETATM   22  H22 LIG     1      -2.007   1.393  -0.485  1.00  0.00     0.033 H 
HETATM   23  H23 LIG     1      -2.211  -1.512   0.555  1.00  0.00     0.046 H 
HETATM   24  H24 LIG     1      -1.729  -0.447  -2.318  1.00  0.00     0.028 H 
HETATM   25  H25 LIG     1      -3.241  -1.241  -1.729  1.00  0.00     0.028 H 
HETATM   26  H26 LIG     1      -1.747  -2.184  -1.843  1.00  0.00     0.028 H 
HETATM   27  H27 LIG     1      -0.180  -2.962  -0.358  1.00  0.00     0.089 H 
HETATM   28  H28 LIG     1       0.091   1.265   0.459  1.00  0.00     0.084 H 
HETATM   29  H29 LIG     1       2.455   1.078   0.732  1.00  0.00     0.085 H 
HETATM   30  H30 LIG     1       4.469   0.971   0.127  1.00  0.00     0.084 H 
HETATM   31  H31 LIG     1       6.878   0.838   0.421  1.00  0.00     0.083 H 
HETATM   32  H32 LIG     1       7.967  -1.314   0.960  1.00  0.00     0.083 H 
HETATM   33  H33 LIG     1       6.604  -3.359   1.224  1.00  0.00     0.083 H 
HETATM   34  H34 LIG     1       4.195  -3.283   0.972  1.00  0.00     0.084 H 
ENDROOT
TORSDOF 5
ENDMDL
