MODEL 0
REMARK FAKE_HEAD_ATOM=C1_C2
REMARK REAL_HEAD_ATOM=C3_C4
REMARK DUMMY_ATOM=C1_H18_H19_H20_C2_H21_H22
REMARK TORSION=H23_C3_C4_C5
REMARK TORSION=C8_C9_O10_C11
REMARK TORSION=C9_O10_C11_C12
REMARK TORSION=O10_C11_C12_C13
ROOT
HETATM    1  C1  LIG     1      -7.340   0.645  -0.301  1.00  0.00    -0.076 C 
HETATM    2  C2  LIG     1      -5.827   0.639  -0.101  1.00  0.00    -0.065 C 
HETATM    3  C3  LIG     1      -5.365  -0.653   0.588  1.00  0.00    -0.041 C 
HETATM    4  C4  LIG     1      -3.868  -0.674   0.783  1.00  0.00    -0.058 A 
HETATM    5  C5  LIG     1      -3.086  -1.657   0.156  1.00  0.00    -0.074 A 
HETATM    6  C6  LIG     1      -1.701  -1.680   0.340  1.00  0.00    -0.050 A 
HETATM    7  C7  LIG     1      -3.244   0.281   1.601  1.00  0.00    -0.074 A 
HETATM    8  C8  LIG     1      -1.858   0.258   1.786  1.00  0.00    -0.050 A 
HETATM    9  C9  LIG     1      -1.074  -0.728   1.152  1.00  0.00     0.069 A 
HETATM   10  O10 LIG     1       0.276  -0.792   1.302  1.00  0.00    -0.347 OA
HETATM   11  C11 LIG     1       1.035   0.068   2.072  1.00  0.00     0.050 C 
HETATM   12  C12 LIG     1       2.479  -0.343   2.003  1.00  0.00    -0.034 A 
HETATM   13  C13 LIG     1       3.452   0.539   1.502  1.00  0.00    -0.075 A 
HETATM   14  C14 LIG     1       4.793   0.147   1.443  1.00  0.00    -0.082 A 
HETATM   15  C15 LIG     1       5.171  -1.125   1.882  1.00  0.00    -0.083 A 
HETATM   16  C16 LIG     1       4.209  -2.007   2.382  1.00  0.00    -0.082 A 
HETATM   17  C17 LIG     1       2.867  -1.620   2.444  1.00  0.00    -0.075 A 
HETATM   18  H18 LIG     1      -7.650  -0.213  -0.935  1.00  0.00     0.027 H 
HETATM   19  H19 LIG     1      -7.645   1.586  -0.804  1.00  0.00     0.027 H 
HETATM   20  H20 LIG     1      -7.858   0.580   0.680  1.00  0.00     0.027 H 
HETATM   21  H21 LIG     1      -5.333   0.725  -1.093  1.00  0.00     0.032 H 
HETATM   22  H22 LIG     1      -5.550   1.523   0.512  1.00  0.00     0.032 H 
HETATM   23  H23 LIG     1      -5.682  -1.516  -0.039  1.00  0.00     0.040 H 
HETATM   24  H24 LIG     1      -5.858  -0.753   1.580  1.00  0.00     0.040 H 
HETATM   25  H25 LIG     1      -3.548  -2.405  -0.476  1.00  0.00     0.084 H 
HETATM   26  H26 LIG     1      -1.110  -2.444  -0.151  1.00  0.00     0.087 H 
HETATM   27  H27 LIG     1      -3.830   1.042   2.100  1.00  0.00     0.084 H 
HETATM   28  H28 LIG     1      -1.406   1.007   2.422  1.00  0.00     0.087 H 
HETATM   29  H29 LIG     1       0.704   0.021   3.133  1.00  0.00     0.082 H 
HETATM   30  H30 LIG     1       0.907   1.109   1.701  1.00  0.00     0.082 H 
HETATM   31  H31 LIG     1       3.173   1.528   1.158  1.00  0.00     0.084 H 
HETATM   32  H32 LIG     1       5.539   0.829   1.057  1.00  0.00     0.083 H 
HETATM   33  H33 LIG     1       6.210  -1.427   1.836  1.00  0.00     0.083 H 
HETATM   34  H34 LIG     1       4.504  -2.992   2.723  1.00  0.00     0.083 H 
HETATM   35  H35 LIG     1       2.129  -2.310   2.833  1.00  0.00     0.084 H 
ENDROOT
TORSDOF 6
ENDMDL
