MODEL 0
REMARK FAKE_HEAD_ATOM=C1_C2
REMARK REAL_HEAD_ATOM=C3_C4
REMARK DUMMY_ATOM=C1_H16_H17_H18_C2_H19_H20
REMARK TORSION=C4_C5_O6_C7
REMARK TORSION=C5_O6_C7_C8
ROOT
HETATM    1  C1  LIG     1      -1.792   1.202  -0.777  1.00  0.00    -0.073 C 
HETATM    2  C2  LIG     1      -2.185   0.437   0.485  1.00  0.00    -0.044 C 
HETATM    3  C3  LIG     1      -1.346  -0.804   0.673  1.00  0.00    -0.056 A 
HETATM    4  C4  LIG     1       0.044  -0.703   0.864  1.00  0.00    -0.044 A 
HETATM    5  C5  LIG     1       0.826  -1.862   1.050  1.00  0.00     0.076 A 
HETATM    6  O6  LIG     1       2.176  -1.814   1.223  1.00  0.00    -0.311 OA
HETATM    7  C7  LIG     1       2.931  -0.805   1.737  1.00  0.00     0.076 A 
HETATM    8  C8  LIG     1       2.417   0.137   2.655  1.00  0.00    -0.050 A 
HETATM    9  C9  LIG     1       3.242   1.144   3.166  1.00  0.00    -0.080 A 
HETATM   10  C10 LIG     1       4.582   1.218   2.777  1.00  0.00    -0.083 A 
HETATM   11  C11 LIG     1       5.101   0.280   1.882  1.00  0.00    -0.080 A 
HETATM   12  C12 LIG     1       4.281  -0.728   1.368  1.00  0.00    -0.050 A 
HETATM   13  C13 LIG     1       0.205  -3.116   1.017  1.00  0.00    -0.050 A 
HETATM   14  C14 LIG     1      -1.174  -3.221   0.830  1.00  0.00    -0.080 A 
HETATM   15  C15 LIG     1      -1.949  -2.072   0.663  1.00  0.00    -0.077 A 
HETATM   16  H16 LIG     1      -0.736   1.539  -0.728  1.00  0.00     0.028 H 
HETATM   17  H17 LIG     1      -2.439   2.099  -0.883  1.00  0.00     0.028 H 
HETATM   18  H18 LIG     1      -1.928   0.558  -1.673  1.00  0.00     0.028 H 
HETATM   19  H19 LIG     1      -2.068   1.095   1.373  1.00  0.00     0.039 H 
HETATM   20  H20 LIG     1      -3.261   0.169   0.399  1.00  0.00     0.039 H 
HETATM   21  H21 LIG     1       0.507   0.274   0.858  1.00  0.00     0.088 H 
HETATM   22  H22 LIG     1       1.389   0.089   2.987  1.00  0.00     0.087 H 
HETATM   23  H23 LIG     1       2.843   1.865   3.868  1.00  0.00     0.083 H 
HETATM   24  H24 LIG     1       5.219   1.997   3.175  1.00  0.00     0.083 H 
HETATM   25  H25 LIG     1       6.141   0.334   1.587  1.00  0.00     0.083 H 
HETATM   26  H26 LIG     1       4.693  -1.452   0.677  1.00  0.00     0.087 H 
HETATM   27  H27 LIG     1       0.797  -4.015   1.144  1.00  0.00     0.087 H 
HETATM   28  H28 LIG     1      -1.644  -4.196   0.814  1.00  0.00     0.083 H 
HETATM   29  H29 LIG     1      -3.018  -2.171   0.519  1.00  0.00     0.084 H 
ENDROOT
TORSDOF 4
ENDMDL
