MODEL 0
REMARK FAKE_HEAD_ATOM=C5_C4
REMARK REAL_HEAD_ATOM=C3_C2
REMARK DUMMY_ATOM=C5_H15_H16_H17_C4_H13_H14
REMARK TORSION=H11_C3_C2_C1
ROOT
HETATM    1  C1  LIG     1      -3.102   1.830  -0.260  1.00  0.00    -0.073 C 
HETATM    2  C2  LIG     1      -2.131   0.648  -0.099  1.00  0.00    -0.061 C 
HETATM    3  C3  LIG     1      -1.202   0.809   1.126  1.00  0.00    -0.063 C 
HETATM    4  C4  LIG     1      -0.268   2.027   1.031  1.00  0.00    -0.068 C 
HETATM    5  C5  LIG     1       0.670   2.093   2.233  1.00  0.00    -0.077 C 
HETATM    6  C6  LIG     1      -2.932  -0.655   0.030  1.00  0.00    -0.073 C 
HETATM    7  H7  LIG     1      -2.556   2.778  -0.435  1.00  0.00     0.028 H 
HETATM    8  H8  LIG     1      -3.740   1.939   0.644  1.00  0.00     0.028 H 
HETATM    9  H9  LIG     1      -3.758   1.665  -1.141  1.00  0.00     0.028 H 
HETATM   10  H10 LIG     1      -1.507   0.575  -1.017  1.00  0.00     0.038 H 
HETATM   11  H11 LIG     1      -0.565  -0.100   1.198  1.00  0.00     0.033 H 
HETATM   12  H12 LIG     1      -1.812   0.880   2.054  1.00  0.00     0.033 H 
HETATM   13  H13 LIG     1       0.342   1.955   0.105  1.00  0.00     0.032 H 
HETATM   14  H14 LIG     1      -0.855   2.967   1.004  1.00  0.00     0.032 H 
HETATM   15  H15 LIG     1       1.335   2.977   2.138  1.00  0.00     0.027 H 
HETATM   16  H16 LIG     1       1.300   1.179   2.283  1.00  0.00     0.027 H 
HETATM   17  H17 LIG     1       0.087   2.186   3.174  1.00  0.00     0.027 H 
HETATM   18  H18 LIG     1      -3.577  -0.633   0.935  1.00  0.00     0.028 H 
HETATM   19  H19 LIG     1      -2.244  -1.524   0.104  1.00  0.00     0.028 H 
HETATM   20  H20 LIG     1      -3.575  -0.802  -0.864  1.00  0.00     0.028 H 
ENDROOT
TORSDOF 5
ENDMDL
