MODEL 0
REMARK FAKE_HEAD_ATOM=C1_C2
REMARK REAL_HEAD_ATOM=C3_C4
REMARK DUMMY_ATOM=C1_H16_H17_H18_C2_H19_H20
REMARK TORSION=C7_C8_O9_C10
REMARK TORSION=C8_O9_C10_C11
ROOT
HETATM    1  C1  LIG     1      -0.117   4.808   0.637  1.00  0.00    -0.073 C 
HETATM    2  C2  LIG     1       1.131   4.242  -0.039  1.00  0.00    -0.044 C 
HETATM    3  C3  LIG     1       1.538   2.916   0.556  1.00  0.00    -0.058 A 
HETATM    4  C4  LIG     1       2.780   2.778   1.193  1.00  0.00    -0.074 A 
HETATM    5  C5  LIG     1       3.161   1.549   1.740  1.00  0.00    -0.050 A 
HETATM    6  C6  LIG     1       0.681   1.805   0.475  1.00  0.00    -0.074 A 
HETATM    7  C7  LIG     1       1.063   0.576   1.021  1.00  0.00    -0.050 A 
HETATM    8  C8  LIG     1       2.316   0.436   1.650  1.00  0.00     0.076 A 
HETATM    9  O9  LIG     1       2.728  -0.735   2.210  1.00  0.00    -0.311 OA
HETATM   10  C10 LIG     1       2.370  -2.006   1.882  1.00  0.00     0.076 A 
HETATM   11  C11 LIG     1       2.496  -3.006   2.857  1.00  0.00    -0.050 A 
HETATM   12  C12 LIG     1       2.158  -4.330   2.564  1.00  0.00    -0.080 A 
HETATM   13  C13 LIG     1       1.698  -4.670   1.290  1.00  0.00    -0.083 A 
HETATM   14  C14 LIG     1       1.581  -3.687   0.304  1.00  0.00    -0.080 A 
HETATM   15  C15 LIG     1       1.919  -2.360   0.592  1.00  0.00    -0.050 A 
HETATM   16  H16 LIG     1      -0.375   5.786   0.179  1.00  0.00     0.028 H 
HETATM   17  H17 LIG     1       0.071   4.961   1.721  1.00  0.00     0.028 H 
HETATM   18  H18 LIG     1      -0.983   4.126   0.510  1.00  0.00     0.028 H 
HETATM   19  H19 LIG     1       1.948   4.987   0.078  1.00  0.00     0.039 H 
HETATM   20  H20 LIG     1       0.940   4.113  -1.126  1.00  0.00     0.039 H 
HETATM   21  H21 LIG     1       3.455   3.622   1.270  1.00  0.00     0.084 H 
HETATM   22  H22 LIG     1       4.121   1.458   2.231  1.00  0.00     0.087 H 
HETATM   23  H23 LIG     1      -0.283   1.892  -0.010  1.00  0.00     0.084 H 
HETATM   24  H24 LIG     1       0.373  -0.254   0.962  1.00  0.00     0.087 H 
HETATM   25  H25 LIG     1       2.855  -2.752   3.847  1.00  0.00     0.087 H 
HETATM   26  H26 LIG     1       2.254  -5.094   3.325  1.00  0.00     0.083 H 
HETATM   27  H27 LIG     1       1.438  -5.696   1.064  1.00  0.00     0.083 H 
HETATM   28  H28 LIG     1       1.235  -3.954  -0.686  1.00  0.00     0.083 H 
HETATM   29  H29 LIG     1       1.840  -1.623  -0.194  1.00  0.00     0.087 H 
ENDROOT
TORSDOF 4
ENDMDL
