MODEL 0
REMARK FAKE_HEAD_ATOM=C13_C12
REMARK REAL_HEAD_ATOM=C11_C10
REMARK DUMMY_ATOM=C13_H23_H24_H25_C12_H21_H22
ROOT
HETATM    1  O1  LIG     1      -1.212   0.032   0.022  1.00  0.00    -0.287 OA
HETATM    2  C2  LIG     1       0.009   0.035   0.032  1.00  0.00     0.194 A 
HETATM    3  C3  LIG     1       0.877  -1.132   0.047  1.00  0.00     0.026 A 
HETATM    4  C4  LIG     1       2.196  -0.700   0.055  1.00  0.00    -0.010 A 
HETATM    5  C5  LIG     1       3.241  -1.635   0.070  1.00  0.00    -0.071 A 
HETATM    6  C6  LIG     1       2.923  -3.004   0.075  1.00  0.00    -0.082 A 
HETATM    7  C7  LIG     1       1.579  -3.427   0.066  1.00  0.00    -0.082 A 
HETATM    8  C8  LIG     1       0.541  -2.484   0.052  1.00  0.00    -0.068 A 
HETATM    9  C9  LIG     1       0.873   1.207   0.033  1.00  0.00     0.026 A 
HETATM   10  C10 LIG     1       2.199   0.787   0.047  1.00  0.00    -0.004 A 
HETATM   11  C11 LIG     1       3.250   1.733   0.049  1.00  0.00    -0.046 A 
HETATM   12  C12 LIG     1       4.699   1.280   0.064  1.00  0.00    -0.043 C 
HETATM   13  C13 LIG     1       5.751   2.390   0.065  1.00  0.00    -0.073 C 
HETATM   14  C14 LIG     1       2.893   3.109   0.038  1.00  0.00    -0.076 A 
HETATM   15  C15 LIG     1       1.542   3.506   0.024  1.00  0.00    -0.082 A 
HETATM   16  C16 LIG     1       0.521   2.551   0.022  1.00  0.00    -0.068 A 
HETATM   17  H17 LIG     1       4.275  -1.339   0.077  1.00  0.00     0.084 H 
HETATM   18  H18 LIG     1       3.717  -3.740   0.086  1.00  0.00     0.083 H 
HETATM   19  H19 LIG     1       1.346  -4.484   0.070  1.00  0.00     0.083 H 
HETATM   20  H20 LIG     1      -0.494  -2.800   0.044  1.00  0.00     0.085 H 
HETATM   21  H21 LIG     1       4.878   0.658  -0.839  1.00  0.00     0.039 H 
HETATM   22  H22 LIG     1       4.864   0.670   0.978  1.00  0.00     0.039 H 
HETATM   23  H23 LIG     1       5.660   3.014  -0.850  1.00  0.00     0.028 H 
HETATM   24  H24 LIG     1       6.765   1.937   0.076  1.00  0.00     0.028 H 
HETATM   25  H25 LIG     1       5.646   3.026   0.970  1.00  0.00     0.028 H 
HETATM   26  H26 LIG     1       3.645   3.883   0.040  1.00  0.00     0.084 H 
HETATM   27  H27 LIG     1       1.292   4.559   0.016  1.00  0.00     0.083 H 
HETATM   28  H28 LIG     1      -0.518   2.853   0.011  1.00  0.00     0.085 H 
ENDROOT
TORSDOF 2
ENDMDL
