MODEL 0
REMARK FAKE_HEAD_ATOM=C1_C2
REMARK REAL_HEAD_ATOM=C3_C4
REMARK DUMMY_ATOM=C1_H14_H15_H16_C2_H17_H18
REMARK TORSION=H19_C3_C4_C5
ROOT
HETATM    1  C1  LIG     1      -0.614  -1.105  -0.275  1.00  0.00    -0.076 C 
HETATM    2  C2  LIG     1       0.911  -1.054  -0.224  1.00  0.00    -0.065 C 
HETATM    3  C3  LIG     1       1.400   0.055   0.720  1.00  0.00    -0.041 C 
HETATM    4  C4  LIG     1       2.920   0.089   0.785  1.00  0.00    -0.047 A 
HETATM    5  C5  LIG     1       3.563  -1.021   1.366  1.00  0.00    -0.076 A 
HETATM    6  C6  LIG     1       4.950  -1.075   1.478  1.00  0.00    -0.082 A 
HETATM    7  C7  LIG     1       5.733  -0.025   1.013  1.00  0.00    -0.072 A 
HETATM    8  C8  LIG     1       5.136   1.098   0.428  1.00  0.00    -0.025 A 
HETATM    9  C9  LIG     1       3.718   1.176   0.304  1.00  0.00    -0.020 A 
HETATM   10  C10 LIG     1       3.165   2.331  -0.304  1.00  0.00    -0.072 A 
HETATM   11  C11 LIG     1       3.992   3.360  -0.762  1.00  0.00    -0.082 A 
HETATM   12  C12 LIG     1       5.374   3.269  -0.630  1.00  0.00    -0.082 A 
HETATM   13  C13 LIG     1       5.947   2.145  -0.039  1.00  0.00    -0.072 A 
HETATM   14  H14 LIG     1      -1.022  -0.135  -0.633  1.00  0.00     0.027 H 
HETATM   15  H15 LIG     1      -1.026  -1.325   0.732  1.00  0.00     0.027 H 
HETATM   16  H16 LIG     1      -0.936  -1.904  -0.975  1.00  0.00     0.027 H 
HETATM   17  H17 LIG     1       1.284  -2.045   0.109  1.00  0.00     0.032 H 
HETATM   18  H18 LIG     1       1.296  -0.856  -1.248  1.00  0.00     0.032 H 
HETATM   19  H19 LIG     1       1.008  -0.115   1.747  1.00  0.00     0.040 H 
HETATM   20  H20 LIG     1       0.948   0.998   0.377  1.00  0.00     0.040 H 
HETATM   21  H21 LIG     1       2.981  -1.852   1.744  1.00  0.00     0.084 H 
HETATM   22  H22 LIG     1       5.420  -1.938   1.930  1.00  0.00     0.083 H 
HETATM   23  H23 LIG     1       6.811  -0.088   1.110  1.00  0.00     0.084 H 
HETATM   24  H24 LIG     1       2.108   2.465  -0.443  1.00  0.00     0.084 H 
HETATM   25  H25 LIG     1       3.554   4.235  -1.226  1.00  0.00     0.083 H 
HETATM   26  H26 LIG     1       6.005   4.071  -0.989  1.00  0.00     0.083 H 
HETATM   27  H27 LIG     1       7.025   2.090   0.053  1.00  0.00     0.084 H 
ENDROOT
TORSDOF 3
ENDMDL
