MODEL 0
REMARK FAKE_HEAD_ATOM=C1_C2
REMARK REAL_HEAD_ATOM=C3_C4
REMARK DUMMY_ATOM=C1_H17_H18_H19_C2_H20_H21
ROOT
HETATM    1  C1  LIG     1      -0.151  -1.765   0.476  1.00  0.00    -0.073 C 
HETATM    2  C2  LIG     1       1.219  -1.364  -0.080  1.00  0.00    -0.043 C 
HETATM    3  C3  LIG     1       1.659   0.006   0.446  1.00  0.00    -0.036 A 
HETATM    4  C4  LIG     1       1.042   1.192  -0.073  1.00  0.00    -0.019 A 
HETATM    5  C5  LIG     1       0.043   1.147  -1.080  1.00  0.00    -0.072 A 
HETATM    6  C6  LIG     1      -0.537   2.320  -1.567  1.00  0.00    -0.082 A 
HETATM    7  C7  LIG     1      -0.140   3.558  -1.074  1.00  0.00    -0.082 A 
HETATM    8  C8  LIG     1       0.846   3.634  -0.094  1.00  0.00    -0.072 A 
HETATM    9  C9  LIG     1       1.443   2.465   0.409  1.00  0.00    -0.025 A 
HETATM   10  C10 LIG     1       2.435   2.572   1.379  1.00  0.00    -0.061 A 
HETATM   11  C11 LIG     1       3.055   1.436   1.897  1.00  0.00    -0.025 A 
HETATM   12  C12 LIG     1       2.683   0.138   1.447  1.00  0.00    -0.019 A 
HETATM   13  C13 LIG     1       3.343  -0.977   2.032  1.00  0.00    -0.072 A 
HETATM   14  C14 LIG     1       4.330  -0.797   3.004  1.00  0.00    -0.082 A 
HETATM   15  C15 LIG     1       4.684   0.480   3.422  1.00  0.00    -0.082 A 
HETATM   16  C16 LIG     1       4.051   1.592   2.876  1.00  0.00    -0.072 A 
HETATM   17  H17 LIG     1      -0.443  -2.754   0.064  1.00  0.00     0.028 H 
HETATM   18  H18 LIG     1      -0.945  -1.036   0.225  1.00  0.00     0.028 H 
HETATM   19  H19 LIG     1      -0.094  -1.847   1.583  1.00  0.00     0.028 H 
HETATM   20  H20 LIG     1       1.228  -1.360  -1.190  1.00  0.00     0.039 H 
HETATM   21  H21 LIG     1       1.900  -2.187   0.173  1.00  0.00     0.039 H 
HETATM   22  H22 LIG     1      -0.299   0.217  -1.506  1.00  0.00     0.084 H 
HETATM   23  H23 LIG     1      -1.299   2.266  -2.334  1.00  0.00     0.083 H 
HETATM   24  H24 LIG     1      -0.593   4.464  -1.457  1.00  0.00     0.083 H 
HETATM   25  H25 LIG     1       1.148   4.609   0.274  1.00  0.00     0.084 H 
HETATM   26  H26 LIG     1       2.731   3.553   1.736  1.00  0.00     0.086 H 
HETATM   27  H27 LIG     1       3.120  -1.993   1.770  1.00  0.00     0.084 H 
HETATM   28  H28 LIG     1       4.822  -1.658   3.437  1.00  0.00     0.083 H 
HETATM   29  H29 LIG     1       5.449   0.610   4.177  1.00  0.00     0.083 H 
HETATM   30  H30 LIG     1       4.337   2.579   3.219  1.00  0.00     0.084 H 
ENDROOT
TORSDOF 2
ENDMDL
