MODEL 0
REMARK FAKE_HEAD_ATOM=C7_C6
REMARK REAL_HEAD_ATOM=C5_C4
REMARK DUMMY_ATOM=C7_H17_H18_H19_C6_H15_H16
REMARK TORSION=H13_C5_C4_C3
ROOT
HETATM    1 CL1  LIG     1      -0.669  -1.054   0.183  1.00  0.00    -0.083 Cl
HETATM    2  C2  LIG     1       1.083  -0.977   0.048  1.00  0.00     0.056 A 
HETATM    3  C3  LIG     1       1.703   0.274  -0.065  1.00  0.00    -0.054 A 
HETATM    4  C4  LIG     1       3.107   0.370  -0.175  1.00  0.00    -0.057 A 
HETATM    5  C5  LIG     1       3.838   1.694  -0.300  1.00  0.00    -0.041 C 
HETATM    6  C6  LIG     1       2.951   2.949  -0.302  1.00  0.00    -0.065 C 
HETATM    7  C7  LIG     1       3.791   4.216  -0.434  1.00  0.00    -0.076 C 
HETATM    8  C8  LIG     1       3.869  -0.810  -0.170  1.00  0.00    -0.075 A 
HETATM    9  C9  LIG     1       3.249  -2.057  -0.057  1.00  0.00    -0.060 A 
HETATM   10  C10 LIG     1       1.859  -2.147   0.051  1.00  0.00     0.055 A 
HETATM   11 CL11 LIG     1       1.111  -3.732   0.191  1.00  0.00    -0.083 Cl
HETATM   12  H12 LIG     1       1.081   1.158  -0.065  1.00  0.00     0.086 H 
HETATM   13  H13 LIG     1       4.420   1.674  -1.248  1.00  0.00     0.040 H 
HETATM   14  H14 LIG     1       4.553   1.771   0.548  1.00  0.00     0.040 H 
HETATM   15  H15 LIG     1       2.378   3.005   0.648  1.00  0.00     0.032 H 
HETATM   16  H16 LIG     1       2.243   2.906  -1.158  1.00  0.00     0.032 H 
HETATM   17  H17 LIG     1       4.499   4.301   0.417  1.00  0.00     0.027 H 
HETATM   18  H18 LIG     1       3.126   5.105  -0.434  1.00  0.00     0.027 H 
HETATM   19  H19 LIG     1       4.365   4.202  -1.386  1.00  0.00     0.027 H 
HETATM   20  H20 LIG     1       4.948  -0.761  -0.253  1.00  0.00     0.084 H 
HETATM   21  H21 LIG     1       3.853  -2.956  -0.055  1.00  0.00     0.086 H 
ENDROOT
TORSDOF 3
ENDMDL
