MODEL 0
REMARK FAKE_HEAD_ATOM=C1_C2
REMARK REAL_HEAD_ATOM=C3_C4
REMARK DUMMY_ATOM=C1_H8_H9_H10_C2_H11_H12
REMARK TORSION=H13_C3_C4_C5
REMARK TORSION=H13_C3_C6_C7
ROOT
HETATM    1  C1  LIG     1      -5.089   2.504  -0.463  1.00  0.00    -0.076 C 
HETATM    2  C2  LIG     1      -4.057   1.501  -0.986  1.00  0.00    -0.065 C 
HETATM    3  C3  LIG     1      -4.431   0.774  -2.311  1.00  0.00    -0.055 C 
HETATM    4  C4  LIG     1      -5.472  -0.379  -2.200  1.00  0.00    -0.065 C 
HETATM    5  C5  LIG     1      -6.881   0.006  -1.760  1.00  0.00    -0.076 C 
HETATM    6  C6  LIG     1      -3.141   0.234  -2.992  1.00  0.00    -0.065 C 
HETATM    7  C7  LIG     1      -2.373  -0.828  -2.196  1.00  0.00    -0.076 C 
HETATM    8  H8  LIG     1      -4.661   3.034   0.414  1.00  0.00     0.027 H 
HETATM    9  H9  LIG     1      -6.025   2.046  -0.119  1.00  0.00     0.027 H 
HETATM   10  H10 LIG     1      -5.319   3.258  -1.245  1.00  0.00     0.027 H 
HETATM   11  H11 LIG     1      -3.789   0.768  -0.196  1.00  0.00     0.033 H 
HETATM   12  H12 LIG     1      -3.158   2.125  -1.189  1.00  0.00     0.033 H 
HETATM   13  H13 LIG     1      -4.829   1.538  -3.016  1.00  0.00     0.039 H 
HETATM   14  H14 LIG     1      -5.109  -1.180  -1.524  1.00  0.00     0.033 H 
HETATM   15  H15 LIG     1      -5.584  -0.813  -3.218  1.00  0.00     0.033 H 
HETATM   16  H16 LIG     1      -6.915   0.265  -0.689  1.00  0.00     0.027 H 
HETATM   17  H17 LIG     1      -7.547  -0.876  -1.874  1.00  0.00     0.027 H 
HETATM   18  H18 LIG     1      -7.278   0.832  -2.388  1.00  0.00     0.027 H 
HETATM   19  H19 LIG     1      -2.450   1.085  -3.182  1.00  0.00     0.033 H 
HETATM   20  H20 LIG     1      -3.403  -0.195  -3.985  1.00  0.00     0.033 H 
HETATM   21  H21 LIG     1      -2.039  -0.428  -1.217  1.00  0.00     0.027 H 
HETATM   22  H22 LIG     1      -1.469  -1.128  -2.768  1.00  0.00     0.027 H 
HETATM   23  H23 LIG     1      -2.986  -1.737  -2.036  1.00  0.00     0.027 H 
ENDROOT
TORSDOF 6
ENDMDL
