MODEL 0
REMARK FAKE_HEAD_ATOM=C1_C2
REMARK REAL_HEAD_ATOM=C3_C4
REMARK DUMMY_ATOM=C1_H9_H10_H11_C2_H12_H13
ROOT
HETATM    1  C1  LIG     1      -2.579   2.479  -0.176  1.00  0.00    -0.073 C 
HETATM    2  C2  LIG     1      -1.090   2.314   0.134  1.00  0.00    -0.044 C 
HETATM    3  C3  LIG     1      -0.617   0.891   0.362  1.00  0.00    -0.059 A 
HETATM    4  C4  LIG     1       0.725   0.687   0.730  1.00  0.00    -0.077 A 
HETATM    5  C5  LIG     1       1.210  -0.603   0.962  1.00  0.00    -0.082 A 
HETATM    6  C6  LIG     1       0.365  -1.705   0.823  1.00  0.00    -0.083 A 
HETATM    7  C7  LIG     1      -0.968  -1.520   0.452  1.00  0.00    -0.082 A 
HETATM    8  C8  LIG     1      -1.463  -0.232   0.224  1.00  0.00    -0.077 A 
HETATM    9  H9  LIG     1      -2.810   3.557  -0.310  1.00  0.00     0.028 H 
HETATM   10  H10 LIG     1      -3.189   2.096   0.670  1.00  0.00     0.028 H 
HETATM   11  H11 LIG     1      -2.851   1.946  -1.110  1.00  0.00     0.028 H 
HETATM   12  H12 LIG     1      -0.876   2.902   1.053  1.00  0.00     0.039 H 
HETATM   13  H13 LIG     1      -0.503   2.751  -0.704  1.00  0.00     0.039 H 
HETATM   14  H14 LIG     1       1.392   1.533   0.843  1.00  0.00     0.084 H 
HETATM   15  H15 LIG     1       2.243  -0.747   1.252  1.00  0.00     0.083 H 
HETATM   16  H16 LIG     1       0.744  -2.703   1.003  1.00  0.00     0.083 H 
HETATM   17  H17 LIG     1      -1.621  -2.377   0.342  1.00  0.00     0.083 H 
HETATM   18  H18 LIG     1      -2.500  -0.124  -0.061  1.00  0.00     0.084 H 
ENDROOT
TORSDOF 2
ENDMDL
