MODEL 0
REMARK FAKE_HEAD_ATOM=C1_C2
REMARK REAL_HEAD_ATOM=C3_C4
REMARK DUMMY_ATOM=C1_H10_H11_H12_C2_H13_H14
ROOT
HETATM    1  C1  LIG     1       1.384  -1.365  -1.799  1.00  0.00    -0.073 C 
HETATM    2  C2  LIG     1       2.149  -0.321  -2.614  1.00  0.00    -0.043 C 
HETATM    3  C3  LIG     1       3.196   0.398  -1.789  1.00  0.00    -0.037 A 
HETATM    4  C4  LIG     1       4.362  -0.257  -1.321  1.00  0.00     0.040 A 
HETATM    5 CL5  LIG     1       4.698  -1.946  -1.691  1.00  0.00    -0.084 Cl
HETATM    6  C6  LIG     1       5.303   0.452  -0.563  1.00  0.00    -0.061 A 
HETATM    7  C7  LIG     1       5.100   1.801  -0.266  1.00  0.00    -0.081 A 
HETATM    8  C8  LIG     1       3.959   2.455  -0.730  1.00  0.00    -0.082 A 
HETATM    9  C9  LIG     1       3.014   1.762  -1.490  1.00  0.00    -0.075 A 
HETATM   10  H10 LIG     1       0.615  -1.842  -2.442  1.00  0.00     0.028 H 
HETATM   11  H11 LIG     1       0.875  -0.877  -0.941  1.00  0.00     0.028 H 
HETATM   12  H12 LIG     1       2.046  -2.162  -1.410  1.00  0.00     0.028 H 
HETATM   13  H13 LIG     1       1.393   0.403  -2.987  1.00  0.00     0.039 H 
HETATM   14  H14 LIG     1       2.628  -0.787  -3.502  1.00  0.00     0.039 H 
HETATM   15  H15 LIG     1       6.197  -0.044  -0.206  1.00  0.00     0.086 H 
HETATM   16  H16 LIG     1       5.832   2.341   0.320  1.00  0.00     0.083 H 
HETATM   17  H17 LIG     1       3.807   3.502  -0.502  1.00  0.00     0.083 H 
HETATM   18  H18 LIG     1       2.134   2.288  -1.840  1.00  0.00     0.084 H 
ENDROOT
TORSDOF 2
ENDMDL
