MODEL 0
REMARK FAKE_HEAD_ATOM=C1_C2
REMARK REAL_HEAD_ATOM=C3_C4
REMARK DUMMY_ATOM=C1_H10_H11_H12_C2_H13_H14
ROOT
HETATM    1  C1  LIG     1       0.254   0.121  -1.150  1.00  0.00    -0.073 C 
HETATM    2  C2  LIG     1       0.994  -0.670  -2.228  1.00  0.00    -0.044 C 
HETATM    3  C3  LIG     1       2.490  -0.615  -2.033  1.00  0.00    -0.057 A 
HETATM    4  C4  LIG     1       3.173   0.612  -2.107  1.00  0.00    -0.056 A 
HETATM    5  C5  LIG     1       4.561   0.658  -1.930  1.00  0.00     0.034 A 
HETATM    6 CL6  LIG     1       5.406   2.193  -2.022  1.00  0.00    -0.084 Cl
HETATM    7  C7  LIG     1       5.274  -0.518  -1.681  1.00  0.00    -0.062 A 
HETATM    8  C8  LIG     1       4.602  -1.741  -1.610  1.00  0.00    -0.081 A 
HETATM    9  C9  LIG     1       3.216  -1.793  -1.786  1.00  0.00    -0.077 A 
HETATM   10  H10 LIG     1       0.485  -0.293  -0.146  1.00  0.00     0.028 H 
HETATM   11  H11 LIG     1      -0.840   0.048  -1.323  1.00  0.00     0.028 H 
HETATM   12  H12 LIG     1       0.539   1.194  -1.176  1.00  0.00     0.028 H 
HETATM   13  H13 LIG     1       0.635  -1.721  -2.186  1.00  0.00     0.039 H 
HETATM   14  H14 LIG     1       0.741  -0.262  -3.230  1.00  0.00     0.039 H 
HETATM   15  H15 LIG     1       2.630   1.528  -2.304  1.00  0.00     0.086 H 
HETATM   16  H16 LIG     1       6.347  -0.486  -1.544  1.00  0.00     0.086 H 
HETATM   17  H17 LIG     1       5.156  -2.651  -1.418  1.00  0.00     0.083 H 
HETATM   18  H18 LIG     1       2.710  -2.748  -1.728  1.00  0.00     0.084 H 
ENDROOT
TORSDOF 2
ENDMDL
