MODEL 0
REMARK FAKE_HEAD_ATOM=C1_C2
REMARK REAL_HEAD_ATOM=N3_C4
REMARK HEAD_DUMMY_ATOM=C1_H9_H10_H11_C2_H12_H13
REMARK RESTRICT_HEAD_TORSION_IF=NONE
REMARK RESTRICT_HEAD_REFERENCE_ATOM=NONE
REMARK HEAD_HYBRIDIZATION_TYPE=sp3
REMARK FAKE_TAIL_ATOM=C6_C5
REMARK TAIL_DUMMY_ATOM=C6_H15_H16_H17
REMARK RESTRICT_TAIL_TORSION_IF=NONE
REMARK RESTRICT_TAIL_REFERENCE_ATOM=NONE
REMARK TAIL_HYBRIDIZATION_TYPE=sp3
ROOT
HETATM    1  C1  LIG     1      -1.662   0.825  -0.096  1.00  0.00    -0.060 C 
HETATM    2  C2  LIG     1      -0.153   0.882   0.114  1.00  0.00     0.010 C 
HETATM    3  N3  LIG     1       0.212   0.244   1.375  1.00  0.00    -0.284 N 
HETATM    4  C4  LIG     1       0.827   0.817   2.422  1.00  0.00     0.019 A 
HETATM    5  C5  LIG     1       0.967  -0.165   3.376  1.00  0.00     0.065 A 
HETATM    6  C6  LIG     1       1.589  -0.032   4.725  1.00  0.00    -0.033 C 
HETATM    7  N7  LIG     1       0.437  -1.303   2.885  1.00  0.00    -0.164 NA
HETATM    8  N8  LIG     1      -0.014  -1.029   1.668  1.00  0.00     0.004 NA
HETATM    9  H9  LIG     1      -1.924   1.316  -1.057  1.00  0.00     0.029 H 
HETATM   10  H10 LIG     1      -2.181   1.355   0.731  1.00  0.00     0.029 H 
HETATM   11  H11 LIG     1      -2.008  -0.229  -0.129  1.00  0.00     0.029 H 
HETATM   12  H12 LIG     1       0.169   1.946   0.117  1.00  0.00     0.066 H 
HETATM   13  H13 LIG     1       0.359   0.361  -0.723  1.00  0.00     0.066 H 
HETATM   14  H14 LIG     1       1.141   1.852   2.481  1.00  0.00     0.116 H 
HETATM   15  H15 LIG     1       1.949   1.006   4.887  1.00  0.00     0.035 H 
HETATM   16  H16 LIG     1       2.449  -0.729   4.807  1.00  0.00     0.035 H 
HETATM   17  H17 LIG     1       0.840  -0.281   5.505  1.00  0.00     0.035 H 
ENDROOT
TORSDOF 3
ENDMDL
