MODEL 0
REMARK FAKE_HEAD_ATOM=C5_C4
REMARK REAL_HEAD_ATOM=C2_O1
REMARK HEAD_DUMMY_ATOM=C5_H11_H12_H13_C4_H9_H10
REMARK RESTRICT_HEAD_TORSION_IF=AMIDE
REMARK RESTRICT_HEAD_REFERENCE_ATOM=O1
REMARK HEAD_HYBRIDIZATION_TYPE=sp3
REMARK FAKE_TAIL_ATOM=C3_C2
REMARK TAIL_DUMMY_ATOM=C3_H6_H7_H8
REMARK RESTRICT_TAIL_TORSION_IF=AMIDE
REMARK RESTRICT_TAIL_REFERENCE_ATOM=O1
REMARK TAIL_HYBRIDIZATION_TYPE=sp3
ROOT
HETATM    1  O1  LIG     1       1.120  -0.067   0.285  1.00  0.00    -0.298 OA
HETATM    2  C2  LIG     1       2.334   0.008   0.178  1.00  0.00     0.122 C 
HETATM    3  C3  LIG     1       3.015   1.309   0.504  1.00  0.00    -0.021 C 
HETATM    4  C4  LIG     1       3.099  -1.216  -0.278  1.00  0.00    -0.013 C 
HETATM    5  C5  LIG     1       4.612  -1.019  -0.386  1.00  0.00    -0.070 C 
HETATM    6  H6  LIG     1       2.270   2.072   0.816  1.00  0.00     0.037 H 
HETATM    7  H7  LIG     1       3.552   1.692  -0.388  1.00  0.00     0.037 H 
HETATM    8  H8  LIG     1       3.733   1.163   1.337  1.00  0.00     0.037 H 
HETATM    9  H9  LIG     1       2.714  -1.519  -1.276  1.00  0.00     0.043 H 
HETATM   10  H10 LIG     1       2.903  -2.040   0.440  1.00  0.00     0.043 H 
HETATM   11  H11 LIG     1       4.850  -0.227  -1.127  1.00  0.00     0.028 H 
HETATM   12  H12 LIG     1       5.083  -1.966  -0.724  1.00  0.00     0.028 H 
HETATM   13  H13 LIG     1       5.042  -0.749   0.601  1.00  0.00     0.028 H 
ENDROOT
TORSDOF 3
ENDMDL
