MODEL 0
REMARK FAKE_HEAD_ATOM=C4_C3
REMARK REAL_HEAD_ATOM=S2_O1
REMARK HEAD_DUMMY_ATOM=C4_H9_H10_H11_C3_H7_H8
REMARK RESTRICT_HEAD_TORSION_IF=NONE
REMARK RESTRICT_HEAD_REFERENCE_ATOM=NONE
REMARK HEAD_HYBRIDIZATION_TYPE=sp3
REMARK FAKE_TAIL_ATOM=C5_S2
REMARK TAIL_DUMMY_ATOM=C5_H12_H13_H14
REMARK RESTRICT_TAIL_TORSION_IF=NONE
REMARK RESTRICT_TAIL_REFERENCE_ATOM=NONE
REMARK TAIL_HYBRIDIZATION_TYPE=sp3
ROOT
HETATM    1  O1  LIG     1       1.278   0.525  -0.214  1.00  0.00    -0.228 OA
HETATM    2  S2  LIG     1       2.711   0.082   0.122  1.00  0.00     0.140 S 
HETATM    3  C3  LIG     1       2.950   0.295   1.917  1.00  0.00     0.025 C 
HETATM    4  C4  LIG     1       2.674   1.731   2.345  1.00  0.00    -0.064 C 
HETATM    5  C5  LIG     1       3.023  -1.450  -0.797  1.00  0.00     0.015 C 
HETATM    6  O6  LIG     1       3.478   1.204  -0.595  1.00  0.00    -0.228 OA
HETATM    7  H7  LIG     1       3.998   0.034   2.174  1.00  0.00     0.055 H 
HETATM    8  H8  LIG     1       2.256  -0.385   2.455  1.00  0.00     0.055 H 
HETATM    9  H9  LIG     1       3.367   2.428   1.828  1.00  0.00     0.028 H 
HETATM   10  H10 LIG     1       2.825   1.828   3.440  1.00  0.00     0.028 H 
HETATM   11  H11 LIG     1       1.626   2.011   2.104  1.00  0.00     0.028 H 
HETATM   12  H12 LIG     1       2.433  -2.277  -0.352  1.00  0.00     0.048 H 
HETATM   13  H13 LIG     1       4.106  -1.689  -0.766  1.00  0.00     0.048 H 
HETATM   14  H14 LIG     1       2.712  -1.316  -1.854  1.00  0.00     0.048 H 
ENDROOT
TORSDOF 3
ENDMDL
