@<TRIPOS>MOLECULE
GAL
   83    86     1     0     0
SMALL
bcc


@<TRIPOS>ATOM
      1 C1         38.3990   -0.6130   23.0120 c3      268 GAL      0.346900
      2 C2         39.5370   -0.1600   22.0740 c3      268 GAL      0.086100
      3 C3         39.9370   -1.2230   21.0270 c3      268 GAL      0.073100
      4 C4         39.9960   -2.6460   21.6010 c3      268 GAL      0.073100
      5 C5         38.7160   -2.9080   22.3720 c3      268 GAL      0.080100
      6 C6         38.6800   -4.3130   22.9350 c3      268 GAL      0.143400
      7 O7         38.2830    0.2500   24.1570 oh      268 GAL     -0.600800
      8 O8         39.1310    1.0290   21.3780 oh      268 GAL     -0.593800
      9 O9         41.1950   -0.8830   20.4290 oh      268 GAL     -0.608800
     10 O10        41.1100   -2.8480   22.4840 oh      268 GAL     -0.605800
     11 O11        38.6200   -1.9640   23.4510 os      268 GAL     -0.473600
     12 O12        37.3980   -4.4130   23.5480 os      268 GAL     -0.405600
     13 H13        37.4390   -0.5780   22.4450 h2      268 GAL      0.059700
     14 H14        40.4320    0.0810   22.6940 h1      268 GAL      0.050700
     15 H15        39.1650   -1.2140   20.2220 h1      268 GAL      0.103700
     16 H16        40.0660   -3.3730   20.7590 h1      268 GAL      0.156700
     17 H17        37.8460   -2.7680   21.6890 h1      268 GAL      0.108700
     18 H18        39.5310   -4.5550   23.6140 h1      268 GAL      0.074700
     19 H19        38.8910   -5.1110   22.1850 h1      268 GAL      0.074700
     20 H20        37.5820   -0.0290   24.7350 ho      268 GAL      0.420000
     21 H21        39.8320    1.3080   20.8000 ho      268 GAL      0.413000
     22 H22        41.4410   -1.5370   19.7850 ho      268 GAL      0.417000
     23 H23        41.1470   -3.7280   22.8390 ho      268 GAL      0.403000
     24 C24        36.2720   -5.3090   21.5890 c       269 SIA      0.888600
     25 C25        36.5300   -5.4420   23.0840 c3      269 SIA      0.215600
     26 C26        35.2050   -5.2870   23.8360 c3      269 SIA     -0.119400
     27 C27        34.3580   -6.5300   23.6620 c3      269 SIA      0.124100
     28 C28        35.1640   -7.7150   24.1570 c3      269 SIA      0.161500
     29 C29        36.4390   -7.8520   23.3210 c3      269 SIA      0.117100
     30 C30        37.4030   -8.9740   23.6990 c3      269 SIA      0.123100
     31 C31        38.7620   -8.8460   22.9850 c3      269 SIA      0.088100
     32 C32        39.5740  -10.1410   23.0160 c3      269 SIA      0.136400
     33 N33        34.2620   -8.8180   23.8790 n3      269 SIA     -0.787200
     34 O34        35.6210   -4.3300   21.1570 o       269 SIA     -0.815300
     35 O35        36.7240   -6.1790   20.8170 o       269 SIA     -0.815300
     36 O36        33.1130   -6.4330   24.3650 oh      269 SIA     -0.634800
     37 O37        37.1950   -6.6610   23.4300 os      269 SIA     -0.459600
     38 O38        37.5580   -8.9620   25.1100 oh      269 SIA     -0.616800
     39 O39        38.5660   -8.5170   21.6000 oh      269 SIA     -0.634800
     40 O40        40.8620   -9.9660   22.3880 oh      269 SIA     -0.617800
     41 H41        34.6580   -4.3640   23.5320 hc      269 SIA      0.068700
     42 H42        35.3630   -5.0370   24.9110 hc      269 SIA      0.068700
     43 H43        34.1460   -6.6700   22.5760 h1      269 SIA      0.071700
     44 H44        35.3920   -7.6330   25.2450 h1      269 SIA      0.057700
     45 H45        36.1460   -7.9860   22.2530 h1      269 SIA      0.095700
     46 H46        36.9430   -9.9460   23.4050 h1      269 SIA      0.089700
     47 H47        39.3530   -8.0350   23.4710 h1      269 SIA      0.057700
     48 H48        39.0090  -10.9890   22.5630 h1      269 SIA      0.044700
     49 H49        39.6750  -10.5370   24.0540 h1      269 SIA      0.044700
     50 H50        33.5460   -8.7070   23.1610 hn      269 SIA      0.370800
     51 H51        32.5820   -7.2130   24.2560 ho      269 SIA      0.404000
     52 H52        38.1580   -9.6600   25.3450 ho      269 SIA      0.415000
     53 H53        39.4040   -8.4380   21.1600 ho      269 SIA      0.467000
     54 H54        41.3670  -10.7710   22.4070 ho      269 SIA      0.418000
     55 C55        34.3630  -10.1730   24.6550 cx        1 UNL      0.145500
     56 C56        33.5710  -10.4080   25.9300 cx        1 UNL     -0.175700
     57 H57        34.0330  -11.1180   26.6500 hc        1 UNL      0.074700
     58 C58        32.5220   -9.4090   26.4460 c3        1 UNL     -0.072400
     59 C59        32.8320   -9.0210   27.8900 c3        1 UNL      0.227800
     60 N60        32.7400   -7.5710   28.0550 n3        1 UNL     -0.916100
     61 S61        31.1800   -7.1560   28.7910 sy        1 UNL      1.507200
     62 O62        31.4940   -6.0690   29.8310 o         1 UNL     -0.661800
     63 C63        29.8230   -6.7080   27.7030 ca        1 UNL     -0.365500
     64 C64        28.6820   -6.0760   28.2170 ca        1 UNL     -0.019000
     65 C65        27.6350   -5.7210   27.3610 ca        1 UNL     -0.159500
     66 C66        27.7230   -5.9940   25.9930 ca        1 UNL     -0.076000
     67 C67        28.8620   -6.6230   25.4780 ca        1 UNL     -0.159500
     68 C68        29.9100   -6.9800   26.3320 ca        1 UNL     -0.019000
     69 O69        30.8330   -8.3570   29.6840 o         1 UNL     -0.661800
     70 C70        33.1460  -11.1110   24.6370 cx        1 UNL     -0.133400
     71 H71        35.3660  -10.6420   24.7540 h1        1 UNL      0.113700
     72 H72        32.4630   -8.4920   25.8290 hc        1 UNL      0.045700
     73 H73        31.5250   -9.8970   26.3970 hc        1 UNL      0.045700
     74 H74        33.8660   -9.3530   28.1240 h1        1 UNL      0.063200
     75 H75        32.1230   -9.5300   28.5820 h1        1 UNL      0.063200
     76 H76        32.7910   -7.1170   27.1130 hn        1 UNL      0.466800
     77 H77        28.6060   -5.8580   29.2730 ha        1 UNL      0.152500
     78 H78        26.7550   -5.2330   27.7600 ha        1 UNL      0.135500
     79 H79        26.9110   -5.7180   25.3320 ha        1 UNL      0.130000
     80 H80        28.9300   -6.8330   24.4190 ha        1 UNL      0.135500
     81 H81        30.7900   -7.4640   25.9260 ha        1 UNL      0.152500
     82 H82        32.3610  -10.6500   24.0010 hc        1 UNL      0.066700
     83 H83        33.5480  -12.1210   24.4130 hc        1 UNL      0.066700
@<TRIPOS>BOND
     1    1    2 1   
     2    1    7 1   
     3    1   11 1   
     4    1   13 1   
     5    2    3 1   
     6    2    8 1   
     7    2   14 1   
     8    3    4 1   
     9    3    9 1   
    10    3   15 1   
    11    4    5 1   
    12    4   10 1   
    13    4   16 1   
    14    5    6 1   
    15    5   11 1   
    16    5   17 1   
    17    6   12 1   
    18    6   18 1   
    19    6   19 1   
    20    7   20 1   
    21    8   21 1   
    22    9   22 1   
    23   10   23 1   
    24   12   25 1   
    25   24   25 1   
    26   24   34 1   
    27   24   35 1   
    28   25   26 1   
    29   25   37 1   
    30   26   27 1   
    31   26   41 1   
    32   26   42 1   
    33   27   28 1   
    34   27   36 1   
    35   27   43 1   
    36   28   29 1   
    37   28   33 1   
    38   28   44 1   
    39   29   30 1   
    40   29   37 1   
    41   29   45 1   
    42   30   31 1   
    43   30   38 1   
    44   30   46 1   
    45   31   32 1   
    46   31   39 1   
    47   31   47 1   
    48   32   40 1   
    49   32   48 1   
    50   32   49 1   
    51   33   50 1   
    52   33   55 1   
    53   36   51 1   
    54   38   52 1   
    55   39   53 1   
    56   40   54 1   
    57   55   56 1   
    58   55   70 1   
    59   55   71 1   
    60   56   57 1   
    61   56   58 1   
    62   56   70 1   
    63   58   59 1   
    64   58   72 1   
    65   58   73 1   
    66   59   60 1   
    67   59   74 1   
    68   59   75 1   
    69   60   61 1   
    70   60   76 1   
    71   61   62 2   
    72   61   63 1   
    73   61   69 2   
    74   63   64 ar  
    75   63   68 ar  
    76   64   65 ar  
    77   64   77 1   
    78   65   66 ar  
    79   65   78 1   
    80   66   67 ar  
    81   66   79 1   
    82   67   68 ar  
    83   67   80 1   
    84   68   81 1   
    85   70   82 1   
    86   70   83 1   
@<TRIPOS>SUBSTRUCTURE
     1 GAL         1 TEMP              0 ****  ****    0 ROOT
