MODEL 0
REMARK DUMMY_ATOM=C1_H1_H2_H3_C2_H4_H5
REMARK REAL_HEAD_ATOM=C3_C4
REMARK FAKE_HEAD_ATOM=C1_C2
REMARK TORSION=C6_C7_C8_O1
REMARK TORSION=C7_C8_O1_S1
ROOT
HETATM    1  C1  LIG     1      -4.701   1.777   0.626  1.00  0.00    -0.073 C 
HETATM    2  C2  LIG     1      -3.972   1.294  -0.643  1.00  0.00    -0.044 C 
HETATM    3  C3  LIG     1      -2.977   0.184  -0.337  1.00  0.00    -0.058 A 
HETATM    4  C4  LIG     1      -3.387  -1.161  -0.388  1.00  0.00    -0.077 A 
HETATM    5  C5  LIG     1      -2.478  -2.189  -0.095  1.00  0.00    -0.082 A 
HETATM    6  C6  LIG     1      -1.158  -1.877   0.264  1.00  0.00    -0.075 A 
HETATM    7  C7  LIG     1      -0.735  -0.537   0.323  1.00  0.00    -0.033 A 
HETATM    8  C8  LIG     1       0.688  -0.201   0.746  1.00  0.00     0.064 C 
HETATM    9  O1  LIG     1       1.478   0.055  -0.413  1.00  0.00    -0.252 OA
HETATM   10  S1  LIG     1       3.040   0.316  -0.101  1.00  0.00     0.251 S 
HETATM   11  O2  LIG     1       3.009   1.457   0.798  1.00  0.00    -0.572 OA
HETATM   12  O3  LIG     1       3.473  -0.915   0.535  1.00  0.00    -0.572 OA
HETATM   13  O4  LIG     1       3.626   0.574  -1.403  1.00  0.00    -0.572 OA
HETATM   14  C9  LIG     1      -1.646   0.489   0.009  1.00  0.00    -0.069 A 
HETATM   15  H1  LIG     1      -5.410   2.581   0.385  1.00  0.00     0.028 H 
HETATM   16  H2  LIG     1      -5.262   0.955   1.089  1.00  0.00     0.028 H 
HETATM   17  H3  LIG     1      -3.986   2.161   1.364  1.00  0.00     0.028 H 
HETATM   18  H4  LIG     1      -4.715   0.941  -1.369  1.00  0.00     0.039 H 
HETATM   19  H5  LIG     1      -3.461   2.143  -1.114  1.00  0.00     0.039 H 
HETATM   20  H6  LIG     1      -4.409  -1.408  -0.658  1.00  0.00     0.084 H 
HETATM   21  H7  LIG     1      -2.794  -3.225  -0.144  1.00  0.00     0.083 H 
HETATM   22  H8  LIG     1      -0.454  -2.674   0.493  1.00  0.00     0.084 H 
HETATM   23  H9  LIG     1       0.677   0.679   1.403  1.00  0.00     0.084 H 
HETATM   24  H10 LIG     1       1.099  -1.043   1.316  1.00  0.00     0.084 H 
HETATM   25  H11 LIG     1      -1.307   1.520   0.039  1.00  0.00     0.085 H 
ENDROOT
TORSDOF 5
ENDMDL
