MODEL 0
REMARK FAKE_HEAD_ATOM=C1_C2
REMARK REAL_HEAD_ATOM=C3_C4
REMARK DUMMY_ATOM=C1_H1_H2_H3_C2_H4_H5
ROOT
HETATM    1  C1  LIG     1       3.855  -0.595  -0.893  1.00  0.00    -0.073 C 
HETATM    2  C2  LIG     1       3.187  -0.348   0.474  1.00  0.00    -0.044 C 
HETATM    3  C3  LIG     1       1.727   0.052   0.324  1.00  0.00    -0.058 A 
HETATM    4  C4  LIG     1       0.721  -0.931   0.293  1.00  0.00    -0.066 A 
HETATM    5  C5  LIG     1      -0.627  -0.567   0.131  1.00  0.00    -0.025 A 
HETATM    6  C6  LIG     1      -0.976   0.794   0.001  1.00  0.00    -0.026 A 
HETATM    7  C7  LIG     1      -2.324   1.158  -0.171  1.00  0.00    -0.072 A 
HETATM    8  C8  LIG     1      -3.322   0.169  -0.214  1.00  0.00    -0.082 A 
HETATM    9  C9  LIG     1      -2.975  -1.186  -0.081  1.00  0.00    -0.082 A 
HETATM   10  C10 LIG     1      -1.630  -1.553   0.093  1.00  0.00    -0.072 A 
HETATM   11  C11 LIG     1       0.027   1.778   0.038  1.00  0.00    -0.072 A 
HETATM   12  C12 LIG     1       1.373   1.408   0.196  1.00  0.00    -0.076 A 
HETATM   13  H1  LIG     1       4.906  -0.881  -0.766  1.00  0.00     0.028 H 
HETATM   14  H2  LIG     1       3.344  -1.401  -1.436  1.00  0.00     0.028 H 
HETATM   15  H3  LIG     1       3.819   0.310  -1.513  1.00  0.00     0.028 H 
HETATM   16  H4  LIG     1       3.269  -1.255   1.086  1.00  0.00     0.039 H 
HETATM   17  H5  LIG     1       3.740   0.434   1.010  1.00  0.00     0.039 H 
HETATM   18  H6  LIG     1       0.990  -1.979   0.387  1.00  0.00     0.085 H 
HETATM   19  H7  LIG     1      -2.597   2.204  -0.275  1.00  0.00     0.084 H 
HETATM   20  H8  LIG     1      -4.361   0.453  -0.350  1.00  0.00     0.083 H 
HETATM   21  H9  LIG     1      -3.747  -1.950  -0.113  1.00  0.00     0.083 H 
HETATM   22  H10 LIG     1      -1.367  -2.602   0.195  1.00  0.00     0.084 H 
HETATM   23  H11 LIG     1      -0.235   2.828  -0.061  1.00  0.00     0.084 H 
HETATM   24  H12 LIG     1       2.142   2.174   0.214  1.00  0.00     0.084 H 
ENDROOT
TORSDOF 2
ENDMDL
