@<TRIPOS>MOLECULE
GAL
   78    81     1     0     0
SMALL
bcc


@<TRIPOS>ATOM
      1 C1         38.3990   -0.6130   23.0120 c3      268 GAL      0.347900
      2 C2         39.5370   -0.1600   22.0740 c3      268 GAL      0.086100
      3 C3         39.9370   -1.2230   21.0270 c3      268 GAL      0.073100
      4 C4         39.9960   -2.6460   21.6010 c3      268 GAL      0.073100
      5 C5         38.7160   -2.9080   22.3720 c3      268 GAL      0.079100
      6 C6         38.6800   -4.3130   22.9350 c3      268 GAL      0.143400
      7 O7         38.2830    0.2500   24.1570 oh      268 GAL     -0.601800
      8 O8         39.1310    1.0290   21.3780 oh      268 GAL     -0.593800
      9 O9         41.1950   -0.8830   20.4290 oh      268 GAL     -0.608800
     10 O10        41.1100   -2.8480   22.4840 oh      268 GAL     -0.605800
     11 O11        38.6200   -1.9640   23.4510 os      268 GAL     -0.473600
     12 O12        37.3980   -4.4130   23.5480 os      268 GAL     -0.405600
     13 H13        37.4390   -0.5780   22.4450 h2      268 GAL      0.060700
     14 H14        40.4320    0.0810   22.6940 h1      268 GAL      0.050700
     15 H15        39.1650   -1.2140   20.2220 h1      268 GAL      0.103700
     16 H16        40.0660   -3.3730   20.7590 h1      268 GAL      0.157700
     17 H17        37.8460   -2.7680   21.6890 h1      268 GAL      0.111700
     18 H18        39.5310   -4.5550   23.6140 h1      268 GAL      0.073700
     19 H19        38.8910   -5.1110   22.1850 h1      268 GAL      0.073700
     20 H20        37.5820   -0.0290   24.7350 ho      268 GAL      0.420000
     21 H21        39.8320    1.3080   20.8000 ho      268 GAL      0.413000
     22 H22        41.4410   -1.5370   19.7850 ho      268 GAL      0.416000
     23 H23        41.1470   -3.7280   22.8390 ho      268 GAL      0.403000
     24 C24        36.2720   -5.3090   21.5890 c       269 SIA      0.887600
     25 C25        36.5300   -5.4420   23.0840 c3      269 SIA      0.213600
     26 C26        35.2050   -5.2870   23.8360 c3      269 SIA     -0.078400
     27 C27        34.3580   -6.5300   23.6620 c3      269 SIA      0.115100
     28 C28        35.1640   -7.7150   24.1570 c3      269 SIA      0.116500
     29 C29        36.4390   -7.8520   23.3210 c3      269 SIA      0.122100
     30 C30        37.4030   -8.9740   23.6990 c3      269 SIA      0.127100
     31 C31        38.7620   -8.8460   22.9850 c3      269 SIA      0.087100
     32 C32        39.5740  -10.1410   23.0160 c3      269 SIA      0.136400
     33 N33        34.2620   -8.8180   23.8790 n3      269 SIA     -0.802200
     34 O34        35.6210   -4.3300   21.1570 o       269 SIA     -0.816300
     35 O35        36.7240   -6.1790   20.8170 o       269 SIA     -0.816300
     36 O36        33.1130   -6.4330   24.3650 oh      269 SIA     -0.610800
     37 O37        37.1950   -6.6610   23.4300 os      269 SIA     -0.460600
     38 O38        37.5580   -8.9620   25.1100 oh      269 SIA     -0.613800
     39 O39        38.5660   -8.5170   21.6000 oh      269 SIA     -0.636800
     40 O40        40.8620   -9.9660   22.3880 oh      269 SIA     -0.618800
     41 H41        34.6580   -4.3640   23.5320 hc      269 SIA      0.072700
     42 H42        35.3630   -5.0370   24.9110 hc      269 SIA      0.072700
     43 H43        34.1460   -6.6700   22.5760 h1      269 SIA      0.059700
     44 H44        35.3920   -7.6330   25.2450 h1      269 SIA      0.077700
     45 H45        36.1460   -7.9860   22.2530 h1      269 SIA      0.093700
     46 H46        36.9430   -9.9460   23.4050 h1      269 SIA      0.091700
     47 H47        39.3530   -8.0350   23.4710 h1      269 SIA      0.055700
     48 H48        39.0090  -10.9890   22.5630 h1      269 SIA      0.044700
     49 H49        39.6750  -10.5370   24.0540 h1      269 SIA      0.044700
     50 H50        33.5460   -8.7070   23.1610 hn      269 SIA      0.367800
     51 H51        32.5820   -7.2130   24.2560 ho      269 SIA      0.390000
     52 H52        38.1580   -9.6600   25.3450 ho      269 SIA      0.413000
     53 H53        39.4040   -8.4380   21.1600 ho      269 SIA      0.466000
     54 H54        41.3670  -10.7710   22.4070 ho      269 SIA      0.417000
     55 C55        34.3630  -10.1700   24.6520 cx        1 UNL      0.141500
     56 C56        35.7420  -10.6240   25.1520 cx        1 UNL     -0.123400
     57 C57        34.7150  -10.0320   26.1170 cx        1 UNL     -0.187700
     58 H58        35.0730   -9.0520   26.5020 hc        1 UNL      0.101700
     59 C59        34.1330  -11.0650   27.0890 c3        1 UNL     -0.042400
     60 C60        33.8280  -10.3950   28.4340 c3        1 UNL     -0.035100
     61 C61        32.6710   -9.4320   28.3330 ca        1 UNL     -0.077300
     62 C62        31.9300   -9.0940   29.4800 ca        1 UNL     -0.130500
     63 C63        30.8610   -8.1980   29.3920 ca        1 UNL     -0.131000
     64 C64        30.5210   -7.6300   28.1610 ca        1 UNL     -0.140000
     65 C65        31.2520   -7.9570   27.0160 ca        1 UNL     -0.131000
     66 C66        32.3250   -8.8520   27.0990 ca        1 UNL     -0.130500
     67 H67        33.5820  -10.9450   24.4900 h1        1 UNL      0.074700
     68 H68        36.5040   -9.9500   24.7050 hc        1 UNL      0.078700
     69 H69        35.7740  -11.7180   24.9610 hc        1 UNL      0.078700
     70 H70        34.8870  -11.8690   27.2360 hc        1 UNL      0.039200
     71 H71        33.2070  -11.5270   26.6800 hc        1 UNL      0.039200
     72 H72        33.5940  -11.1920   29.1760 hc        1 UNL      0.047700
     73 H73        34.7270   -9.8480   28.7930 hc        1 UNL      0.047700
     74 H74        32.1780   -9.5220   30.4420 ha        1 UNL      0.141000
     75 H75        30.2950   -7.9430   30.2790 ha        1 UNL      0.129000
     76 H76        29.6940   -6.9370   28.0960 ha        1 UNL      0.124000
     77 H77        30.9900   -7.5140   26.0640 ha        1 UNL      0.129000
     78 H78        32.8830   -9.0900   26.2020 ha        1 UNL      0.141000
@<TRIPOS>BOND
     1    1    2 1   
     2    1    7 1   
     3    1   11 1   
     4    1   13 1   
     5    2    3 1   
     6    2    8 1   
     7    2   14 1   
     8    3    4 1   
     9    3    9 1   
    10    3   15 1   
    11    4    5 1   
    12    4   10 1   
    13    4   16 1   
    14    5    6 1   
    15    5   11 1   
    16    5   17 1   
    17    6   12 1   
    18    6   18 1   
    19    6   19 1   
    20    7   20 1   
    21    8   21 1   
    22    9   22 1   
    23   10   23 1   
    24   12   25 1   
    25   24   25 1   
    26   24   34 1   
    27   24   35 1   
    28   25   26 1   
    29   25   37 1   
    30   26   27 1   
    31   26   41 1   
    32   26   42 1   
    33   27   28 1   
    34   27   36 1   
    35   27   43 1   
    36   28   29 1   
    37   28   33 1   
    38   28   44 1   
    39   29   30 1   
    40   29   37 1   
    41   29   45 1   
    42   30   31 1   
    43   30   38 1   
    44   30   46 1   
    45   31   32 1   
    46   31   39 1   
    47   31   47 1   
    48   32   40 1   
    49   32   48 1   
    50   32   49 1   
    51   33   50 1   
    52   33   55 1   
    53   36   51 1   
    54   38   52 1   
    55   39   53 1   
    56   40   54 1   
    57   55   56 1   
    58   55   57 1   
    59   55   67 1   
    60   56   57 1   
    61   56   68 1   
    62   56   69 1   
    63   57   58 1   
    64   57   59 1   
    65   59   60 1   
    66   59   70 1   
    67   59   71 1   
    68   60   61 1   
    69   60   72 1   
    70   60   73 1   
    71   61   62 ar  
    72   61   66 ar  
    73   62   63 ar  
    74   62   74 1   
    75   63   64 ar  
    76   63   75 1   
    77   64   65 ar  
    78   64   76 1   
    79   65   66 ar  
    80   65   77 1   
    81   66   78 1   
@<TRIPOS>SUBSTRUCTURE
     1 GAL         1 TEMP              0 ****  ****    0 ROOT
