@<TRIPOS>MOLECULE
GAL
   60    61     1     0     0
SMALL
bcc


@<TRIPOS>ATOM
      1 C1         38.3990   -0.6130   23.0120 c3      268 GAL      0.347900
      2 H1         37.4390   -0.5780   22.4450 h2      268 GAL      0.060700
      3 C2         39.5370   -0.1600   22.0740 c3      268 GAL      0.086100
      4 H2         40.4320    0.0810   22.6940 h1      268 GAL      0.050700
      5 C3         39.9370   -1.2230   21.0270 c3      268 GAL      0.073100
      6 H3         39.1650   -1.2140   20.2220 h1      268 GAL      0.102700
      7 C4         39.9960   -2.6460   21.6010 c3      268 GAL      0.073100
      8 H4         40.0660   -3.3730   20.7590 h1      268 GAL      0.156700
      9 C5         38.7160   -2.9080   22.3720 c3      268 GAL      0.079100
     10 H5         37.8460   -2.7680   21.6890 h1      268 GAL      0.110700
     11 C6         38.6800   -4.3130   22.9350 c3      268 GAL      0.144400
     12 H61        39.5310   -4.5550   23.6140 h1      268 GAL      0.074700
     13 H62        38.8910   -5.1110   22.1850 h1      268 GAL      0.074700
     14 O1         38.2830    0.2500   24.1570 oh      268 GAL     -0.601800
     15 H10        37.5820   -0.0290   24.7350 ho      268 GAL      0.420000
     16 O2         39.1310    1.0290   21.3780 oh      268 GAL     -0.593800
     17 H12        39.8320    1.3080   20.8000 ho      268 GAL      0.412000
     18 O3         41.1950   -0.8830   20.4290 oh      268 GAL     -0.609800
     19 H13        41.4410   -1.5370   19.7850 ho      268 GAL      0.417000
     20 O4         41.1100   -2.8480   22.4840 oh      268 GAL     -0.605800
     21 H14        41.1470   -3.7280   22.8390 ho      268 GAL      0.404000
     22 O5         38.6200   -1.9640   23.4510 os      268 GAL     -0.473600
     23 O6         37.3980   -4.4130   23.5480 os      268 GAL     -0.399600
     24 C1         36.2720   -5.3090   21.5890 c       269 SIA      0.884600
     25 C2         36.5300   -5.4420   23.0840 c3      269 SIA      0.207600
     26 C3         35.2050   -5.2870   23.8360 c3      269 SIA     -0.079400
     27 H31        34.6580   -4.3640   23.5320 hc      269 SIA      0.077200
     28 H32        35.3630   -5.0370   24.9110 hc      269 SIA      0.077200
     29 C4         34.3580   -6.5300   23.6620 c3      269 SIA      0.142100
     30 H4         34.1460   -6.6700   22.5760 h1      269 SIA      0.055700
     31 C5         35.1640   -7.7150   24.1570 c3      269 SIA      0.018700
     32 H5         35.3920   -7.6330   25.2450 h1      269 SIA      0.101700
     33 C6         36.4390   -7.8520   23.3210 c3      269 SIA      0.094100
     34 H6         36.1460   -7.9860   22.2530 h1      269 SIA      0.083700
     35 C7         37.4030   -8.9740   23.6990 c3      269 SIA      0.130100
     36 H7         36.9430   -9.9460   23.4050 h1      269 SIA      0.022700
     37 C8         38.7620   -8.8460   22.9850 c3      269 SIA      0.120100
     38 H8         39.3530   -8.0350   23.4710 h1      269 SIA      0.076700
     39 C9         39.5740  -10.1410   23.0160 c3      269 SIA      0.138400
     40 H91        39.0090  -10.9890   22.5630 h1      269 SIA      0.045200
     41 H92        39.6750  -10.5370   24.0540 h1      269 SIA      0.045200
     42 C10        34.3470   -9.9610   24.5330 c       269 SIA      0.653100
     43 C11        33.3420  -11.0030   24.1350 c3      269 SIA     -0.176100
     44 H111       33.4140  -11.9690   24.6880 hc      269 SIA      0.062033
     45 H112       33.3940  -11.1850   23.0360 hc      269 SIA      0.062033
     46 H113       32.3090  -10.5900   24.2170 hc      269 SIA      0.062033
     47 N5         34.2620   -8.8180   23.8790 n       269 SIA     -0.562900
     48 H16        33.5460   -8.7070   23.1610 hn      269 SIA      0.305500
     49 O1A        35.6210   -4.3300   21.1570 o       269 SIA     -0.817800
     50 O1B        36.7240   -6.1790   20.8170 o       269 SIA     -0.817800
     51 O4         33.1130   -6.4330   24.3650 oh      269 SIA     -0.597800
     52 H15        32.5820   -7.2130   24.2560 ho      269 SIA      0.392000
     53 O6         37.1950   -6.6610   23.4300 os      269 SIA     -0.424600
     54 O7         37.5580   -8.9620   25.1100 oh      269 SIA     -0.602800
     55 H17        38.1580   -9.6600   25.3450 ho      269 SIA      0.421000
     56 O8         38.5660   -8.5170   21.6000 oh      269 SIA     -0.643800
     57 H18        39.4040   -8.4380   21.1600 ho      269 SIA      0.467000
     58 O9         40.8620   -9.9660   22.3880 oh      269 SIA     -0.617800
     59 H9         41.3670  -10.7710   22.4070 ho      269 SIA      0.416000
     60 O10        35.1980  -10.1520   25.3860 o       269 SIA     -0.621100
@<TRIPOS>BOND
     1    1    2 1   
     2    1    3 1   
     3    1   14 1   
     4    1   22 1   
     5    3    4 1   
     6    3    5 1   
     7    3   16 1   
     8    5    6 1   
     9    5    7 1   
    10    5   18 1   
    11    7    8 1   
    12    7    9 1   
    13    7   20 1   
    14    9   10 1   
    15    9   11 1   
    16    9   22 1   
    17   11   12 1   
    18   11   13 1   
    19   11   23 1   
    20   14   15 1   
    21   16   17 1   
    22   18   19 1   
    23   20   21 1   
    24   23   25 1   
    25   24   25 1   
    26   24   49 1   
    27   24   50 1   
    28   25   26 1   
    29   25   53 1   
    30   26   27 1   
    31   26   28 1   
    32   26   29 1   
    33   29   30 1   
    34   29   31 1   
    35   29   51 1   
    36   31   32 1   
    37   31   33 1   
    38   31   47 1   
    39   33   34 1   
    40   33   35 1   
    41   33   53 1   
    42   35   36 1   
    43   35   37 1   
    44   35   54 1   
    45   37   38 1   
    46   37   39 1   
    47   37   56 1   
    48   39   40 1   
    49   39   41 1   
    50   39   58 1   
    51   42   43 1   
    52   42   47 1   
    53   42   60 2   
    54   43   44 1   
    55   43   45 1   
    56   43   46 1   
    57   47   48 1   
    58   51   52 1   
    59   54   55 1   
    60   56   57 1   
    61   58   59 1   
@<TRIPOS>SUBSTRUCTURE
     1 GAL         1 TEMP              0 ****  ****    0 ROOT
